version 2
run JoinManeuver-0-20190101-01:19:56-7064
attr beaconInterval 0.1
attr caccOmegaN 0.2
attr caccXi 1
attr configname JoinManeuver
attr datetime 20190101-01:19:56
attr experiment JoinManeuver
attr inifile omnetpp.ini
attr iterationvars "$nCars=4, $platoonSize=4, $nLanes=1, $caccXi=1, $caccOmegaN=0.2, $ploegH=0.5, $leaderHeadway=1.2, $leaderSpeed=100, $beaconInterval=0.1, $priority=2, $packetSize=200"
attr iterationvarsf nCars=4,platoonSize=4,nLanes=1,caccXi=1,caccOmegaN=0.2,ploegH=0.5,leaderHeadway=1.2,leaderSpeed=100,beaconInterval=0.1,priority=2,packetSize=200-
attr leaderHeadway 1.2
attr leaderSpeed 100
attr measurement "$nCars=4, $platoonSize=4, $nLanes=1, $caccXi=1, $caccOmegaN=0.2, $ploegH=0.5, $leaderHeadway=1.2, $leaderSpeed=100, $beaconInterval=0.1, $priority=2, $packetSize=200"
attr nCars 4
attr nLanes 1
attr network Highway
attr packetSize 200
attr platoonSize 4
attr ploegH 0.5
attr priority 2
attr processid 7064
attr repetition 0
attr replication #0
attr resultdir results
attr runnumber 0
attr seedset 0
param **.controllerOmegaN 0.2
param **.controllerXi 1
param **.coreDebug false
param **.debug false
param **.numberOfCars 4
param **.numberOfCarsPerPlatoon 4
param **.numberOfLanes 1
param **.numericController 0
param **.seed 0
param **.traffic.nCars 4
param **.traffic.nLanes 1
param **.traffic.platoonInsertDistance "5 m"
param **.traffic.platoonInsertHeadway "0 s"
param **.traffic.platoonInsertSpeed 100kmph
param **.traffic.platoonInsertTime "1 s"
param **.traffic.platoonLeaderHeadway 1.2s
param **.traffic.platoonSize 4
param **.traffic.platooningVType "\"vtypeauto\""
param **.traffic_type "\"JoinTrafficManager\""
param *.**.nic.mac1609_4.bitrate 6Mbps
param *.**.nic.mac1609_4.txPower 100mW
param *.**.nic.mac1609_4.useServiceChannel false
param *.**.nic.phy80211p.analogueModels "xmldoc(\"config.xml\")"
param *.**.nic.phy80211p.decider "xmldoc(\"config.xml\")"
param *.**.nic.phy80211p.maxTXPower 100mW
param *.**.nic.phy80211p.sensitivity -94dBm
param *.**.nic.phy80211p.thermalNoise -95dBm
param *.**.nic.phy80211p.usePropagationDelay true
param *.**.nic.phy80211p.useThermalNoise true
param *.annotations.draw false
param *.connectionManager.drawMaxIntfDist false
param *.connectionManager.maxInterfDist 2600m
param *.connectionManager.sendDirect true
param *.manager.autoShutdown true
param *.manager.configFile "\"./sumocfg/freeway.sumo.cfg\""
param *.manager.host "\"localhost\""
param *.manager.margin 25
param *.manager.moduleDisplayString "\"\""
param *.manager.moduleName "\"node\""
param *.manager.moduleType "\"org.car2x.veins.modules.application.platooning.PlatoonCar\""
param *.manager.updateInterval 0.01s
param *.manager.useGui true
param *.node[*].appl.joinManeuver "\"JoinAtBack\""
param *.node[*].appl_type "\"GeneralPlatooningApp\""
param *.node[*].helper_type "\"LocalPlatoonPositionHelper\""
param *.node[*].mobility.x 0
param *.node[*].mobility.y 0
param *.node[*].mobility.z 1.895
param *.node[*].prot.beaconingInterval 0.1s
param *.node[*].prot.packetSize 200
param *.node[*].prot.priority 2
param *.node[*].protocol_type "\"SimplePlatooningBeaconing\""
param *.node[*].scenario.accHeadway "0.1 s"
param *.node[*].scenario.caccC1 0.5
param *.node[*].scenario.caccOmegaN "0.2 Hz"
param *.node[*].scenario.caccXi 1
param *.node[*].scenario.controller "\"CACC\""
param *.node[*].scenario.engineTau "0.5 s"
param *.node[*].scenario.leaderHeadway 1.2s
param *.node[*].scenario.leaderSpeed 100kmph
param *.node[*].scenario.ploegH 0.5s
param *.node[*].scenario.ploegKd 0.7
param *.node[*].scenario.ploegKp 0.2
param *.node[*].scenario.useRealisticEngine false
param *.node[*].scenario_type "\"JoinManeuverScenario\""
param *.node[*].unicast.packetLossRate 0
param *.obstacles.debug false
param *.playgroundSizeX 65000m
param *.playgroundSizeY 25000m
param *.playgroundSizeZ 50m
param *.world.use2D false
param *.world.useTorus false

vector 1  Highway.node[0].appl  distance  ETV
vector 2  Highway.node[0].appl  relativeSpeed  ETV
vector 3  Highway.node[0].appl  nodeId  ETV
vector 7  Highway.node[0].appl  acceleration  ETV
vector 8  Highway.node[0].appl  controllerAcceleration  ETV
vector 4  Highway.node[0].appl  speed  ETV
vector 5  Highway.node[0].appl  posx  ETV
vector 6  Highway.node[0].appl  posy  ETV
vector 24  Highway.node[1].appl  distance  ETV
vector 25  Highway.node[1].appl  relativeSpeed  ETV
vector 26  Highway.node[1].appl  nodeId  ETV
vector 30  Highway.node[1].appl  acceleration  ETV
vector 31  Highway.node[1].appl  controllerAcceleration  ETV
vector 27  Highway.node[1].appl  speed  ETV
vector 28  Highway.node[1].appl  posx  ETV
vector 29  Highway.node[1].appl  posy  ETV
vector 47  Highway.node[2].appl  distance  ETV
vector 48  Highway.node[2].appl  relativeSpeed  ETV
vector 49  Highway.node[2].appl  nodeId  ETV
vector 53  Highway.node[2].appl  acceleration  ETV
vector 54  Highway.node[2].appl  controllerAcceleration  ETV
vector 50  Highway.node[2].appl  speed  ETV
vector 51  Highway.node[2].appl  posx  ETV
vector 52  Highway.node[2].appl  posy  ETV
vector 70  Highway.node[3].appl  distance  ETV
vector 71  Highway.node[3].appl  relativeSpeed  ETV
vector 72  Highway.node[3].appl  nodeId  ETV
vector 76  Highway.node[3].appl  acceleration  ETV
vector 77  Highway.node[3].appl  controllerAcceleration  ETV
vector 73  Highway.node[3].appl  speed  ETV
vector 74  Highway.node[3].appl  posx  ETV
vector 75  Highway.node[3].appl  posy  ETV
vector 84  Highway.node[3].prot  frontDelay  ETV
vector 82  Highway.node[3].prot  frontDelayId  ETV
vector 61  Highway.node[2].prot  frontDelay  ETV
vector 59  Highway.node[2].prot  frontDelayId  ETV
vector 37  Highway.node[1].prot  leaderDelay  ETV
vector 35  Highway.node[1].prot  leaderDelayId  ETV
vector 38  Highway.node[1].prot  frontDelay  ETV
vector 36  Highway.node[1].prot  frontDelayId  ETV
vector 60  Highway.node[2].prot  leaderDelay  ETV
vector 58  Highway.node[2].prot  leaderDelayId  ETV
vector 83  Highway.node[3].prot  leaderDelay  ETV
vector 81  Highway.node[3].prot  leaderDelayId  ETV
vector 9  Highway.node[0].prot  nodeId  ETV
vector 10  Highway.node[0].prot  busyTime  ETV
vector 11  Highway.node[0].prot  collisions  ETV
vector 32  Highway.node[1].prot  nodeId  ETV
vector 33  Highway.node[1].prot  busyTime  ETV
vector 34  Highway.node[1].prot  collisions  ETV
vector 55  Highway.node[2].prot  nodeId  ETV
vector 56  Highway.node[2].prot  busyTime  ETV
vector 57  Highway.node[2].prot  collisions  ETV
vector 78  Highway.node[3].prot  nodeId  ETV
vector 79  Highway.node[3].prot  busyTime  ETV
vector 80  Highway.node[3].prot  collisions  ETV
vector 93  Highway.node[4].appl  distance  ETV
vector 94  Highway.node[4].appl  relativeSpeed  ETV
vector 95  Highway.node[4].appl  nodeId  ETV
vector 99  Highway.node[4].appl  acceleration  ETV
vector 100  Highway.node[4].appl  controllerAcceleration  ETV
vector 96  Highway.node[4].appl  speed  ETV
vector 97  Highway.node[4].appl  posx  ETV
vector 98  Highway.node[4].appl  posy  ETV
vector 101  Highway.node[4].prot  nodeId  ETV
vector 102  Highway.node[4].prot  busyTime  ETV
vector 103  Highway.node[4].prot  collisions  ETV
vector 106  Highway.node[4].prot  leaderDelay  ETV
vector 104  Highway.node[4].prot  leaderDelayId  ETV
vector 107  Highway.node[4].prot  frontDelay  ETV
vector 105  Highway.node[4].prot  frontDelayId  ETV
8	632	1.11	-0.00218518
8	1192	1.21	-0.00213419
8	1752	1.31	-0.00205408
8	2312	1.41	-0.00195152
8	2873	1.51	-0.00183238
8	3433	1.61	-0.00170178
8	3993	1.71	-0.00156412
8	4554	1.81	-0.00142314
8	5114	1.91	-0.00128196
8	5680	2.01	-0.00114315
8	6240	2.11	-0.00100877
8	6800	2.21	-0.000880447
8	7360	2.31	-0.000759381
8	7920	2.41	-0.000646445
8	8480	2.51	-0.000542204
8	9040	2.61	-0.000446965
8	9600	2.71	-0.000360819
8	10160	2.81	-0.000283678
8	10720	2.91	-0.000215307
8	11284	3.01	-0.000155357
8	11844	3.11	-0.000103391
8	12404	3.21	-5.89069e-05
8	12964	3.31	-2.13575e-05
8	13524	3.41	9.82919e-06
8	14084	3.51	3.52368e-05
8	14644	3.61	5.54479e-05
8	15204	3.71	7.10335e-05
8	15764	3.81	8.25451e-05
8	16324	3.91	9.05081e-05
8	16888	4.01	9.54172e-05
8	17448	4.11	9.7733e-05
8	18008	4.21	9.78798e-05
8	18568	4.31	9.62447e-05
8	19128	4.41	9.31771e-05
8	19688	4.51	8.89894e-05
8	20248	4.61	8.39579e-05
8	20808	4.71	7.83245e-05
8	21368	4.81	7.22983e-05
8	21928	4.91	6.6058e-05
8	22492	5.01	5.9754e-05
8	23052	5.11	5.35107e-05
8	23612	5.21	4.74294e-05
8	24172	5.31	4.15898e-05
8	24732	5.41	3.60534e-05
8	25292	5.51	3.0865e-05
8	25852	5.61	2.60551e-05
8	26412	5.71	2.16419e-05
8	26972	5.81	1.76335e-05
8	27532	5.91	1.40289e-05
8	28097	6.01	1.08202e-05
8	28791	6.11	7.99392e-06
8	29526	6.21	5.532e-06
8	30261	6.31	3.41315e-06
8	30997	6.41	1.61374e-06
8	31732	6.51	1.08654e-07
8	32467	6.61	-1.12799e-06
8	33202	6.71	-2.12224e-06
8	33937	6.81	-2.89981e-06
8	34672	6.91	-3.48567e-06
8	35412	7.01	-3.90376e-06
8	36147	7.11	-4.17673e-06
8	36882	7.21	-4.32574e-06
8	37617	7.31	-4.3704e-06
8	38352	7.41	-4.32865e-06
8	39087	7.51	-4.21676e-06
8	39822	7.61	-4.04934e-06
8	40557	7.71	-3.83937e-06
8	41292	7.81	-3.59826e-06
8	42027	7.91	-3.33592e-06
8	42767	8.01	-3.06089e-06
8	43502	8.11	-2.78036e-06
8	44237	8.21	-2.50036e-06
8	44972	8.31	-2.22582e-06
8	45707	8.41	-1.96068e-06
8	46442	8.51	-1.708e-06
8	47177	8.61	-1.47009e-06
8	47912	8.71	-1.24855e-06
8	48647	8.81	-1.04441e-06
8	49382	8.91	-8.58219e-07
8	50122	9.01	-6.90082e-07
8	50857	9.11	-5.39774e-07
8	51592	9.21	-4.06787e-07
8	52327	9.31	-2.90396e-07
8	53062	9.41	-1.89707e-07
8	53797	9.51	-1.03704e-07
8	54532	9.61	-3.12909e-08
8	55267	9.71	2.86736e-08
8	56002	9.81	7.73515e-08
8	56737	9.91	1.15897e-07
8	57477	10.01	1.45439e-07
8	58212	10.11	1.67065e-07
8	58947	10.21	1.81809e-07
8	59682	10.31	1.90644e-07
8	60417	10.41	1.94472e-07
8	61152	10.51	1.94125e-07
8	61887	10.61	1.90358e-07
8	62622	10.71	1.83853e-07
8	63357	10.81	1.75219e-07
8	64092	10.91	1.64994e-07
8	64832	11.01	1.53647e-07
8	65567	11.11	1.41582e-07
8	66302	11.21	1.29146e-07
8	67037	11.31	1.16627e-07
8	67772	11.41	1.04266e-07
8	68507	11.51	9.22547e-08
8	69242	11.61	8.07471e-08
8	69977	11.71	6.98584e-08
8	70712	11.81	5.96732e-08
8	71447	11.91	5.02471e-08
8	72187	12.01	4.16133e-08
8	72922	12.11	3.37845e-08
8	73657	12.21	2.67558e-08
8	74392	12.31	2.05102e-08
8	75127	12.41	1.50187e-08
8	75862	12.51	1.02442e-08
8	76597	12.61	6.14406e-09
8	77332	12.71	2.67022e-09
8	78067	12.81	-2.27374e-10
8	78802	12.91	-2.60059e-09
8	79542	13.01	-4.50058e-09
8	80277	13.11	-5.97851e-09
8	81012	13.21	-7.08376e-09
8	81747	13.31	-7.86322e-09
8	82482	13.41	-8.36167e-09
8	83217	13.51	-8.62066e-09
8	83952	13.61	-8.67857e-09
8	84687	13.71	-8.57057e-09
8	85422	13.81	-8.32792e-09
8	86157	13.91	-7.97975e-09
8	86897	14.01	-7.55058e-09
8	87632	14.11	-7.06351e-09
8	88367	14.21	-6.53699e-09
8	89102	14.31	-5.98774e-09
8	89837	14.41	-5.42997e-09
8	90572	14.51	-4.87468e-09
8	91307	14.61	-4.33182e-09
8	92042	14.71	-3.80886e-09
8	92777	14.81	-3.31148e-09
8	93512	14.91	-2.84395e-09
8	94252	15.01	-2.40981e-09
8	94987	15.11	-2.01013e-09
8	95722	15.21	-1.64633e-09
8	96457	15.31	-1.31806e-09
8	97192	15.41	-1.02531e-09
8	97927	15.51	-7.66676e-10
8	98662	15.61	-5.40723e-10
8	99397	15.71	-3.46034e-10
8	100132	15.81	-1.79767e-10
8	100867	15.91	-4.01457e-11
8	101608	16.01	7.49623e-11
8	102677	16.11	1.68043e-10
8	103412	16.21	2.41585e-10
8	104147	16.31	2.97362e-10
8	104882	16.41	3.37863e-10
8	105617	16.51	3.64864e-10
8	106352	16.61	3.80851e-10
8	107087	16.71	3.86891e-10
8	107822	16.81	3.84759e-10
8	108557	16.91	3.76232e-10
8	109297	17.01	3.62377e-10
8	110032	17.11	3.44613e-10
8	110767	17.21	3.24007e-10
8	111502	17.31	3.00915e-10
8	112237	17.41	2.76756e-10
8	112972	17.51	2.52243e-10
8	113707	17.61	2.27374e-10
8	114442	17.71	2.0286e-10
8	115177	17.81	1.79057e-10
8	115912	17.91	1.56319e-10
8	116652	18.01	1.35003e-10
8	117387	18.11	1.15108e-10
8	118122	18.21	9.66338e-11
8	118857	18.31	7.99361e-11
8	119592	18.41	6.46594e-11
8	120327	18.51	5.08038e-11
8	121062	18.61	3.83693e-11
8	121797	18.71	2.73559e-11
8	122532	18.81	1.77636e-11
8	123267	18.91	9.59233e-12
8	124007	19.01	2.84217e-12
8	124742	19.11	-2.84217e-12
8	125477	19.21	-7.4607e-12
8	126212	19.31	-1.13687e-11
8	126947	19.41	-1.42109e-11
8	127682	19.51	-1.63425e-11
8	128417	19.61	-1.77636e-11
8	129152	19.71	-1.84741e-11
8	129887	19.81	-1.88294e-11
8	130622	19.91	-1.88294e-11
8	131362	20.01	-1.88294e-11
8	132097	20.11	-1.81188e-11
8	132832	20.21	-1.7053e-11
8	133567	20.31	-1.63425e-11
8	134302	20.41	-1.52767e-11
8	135037	20.51	-1.45661e-11
8	135772	20.61	-1.35003e-11
8	136507	20.71	-1.27898e-11
8	137242	20.81	-1.1724e-11
8	137977	20.91	-1.10134e-11
8	138717	21.01	-9.9476e-12
8	139452	21.11	-9.23706e-12
8	140187	21.21	-8.17124e-12
8	140922	21.31	-7.4607e-12
8	141657	21.41	-6.39488e-12
8	142392	21.51	-5.68434e-12
8	143127	21.61	-4.61853e-12
8	143862	21.71	-3.90799e-12
8	144597	21.81	-2.84217e-12
8	145332	21.91	-2.13163e-12
8	146072	22.01	-1.06581e-12
8	146807	22.11	-3.55271e-13
8	147542	22.21	7.10543e-13
8	148277	22.31	1.42109e-12
8	149012	22.41	2.13163e-12
8	149747	22.51	2.84217e-12
8	150482	22.61	3.19744e-12
8	151217	22.71	3.90799e-12
8	151952	22.81	4.26326e-12
8	152687	22.91	4.61853e-12
8	153427	23.01	5.32907e-12
8	154162	23.11	5.68434e-12
8	154897	23.21	5.68434e-12
8	155632	23.31	6.03961e-12
8	156367	23.41	6.39488e-12
8	157102	23.51	6.75016e-12
8	157837	23.61	6.75016e-12
8	158572	23.71	7.10543e-12
8	159307	23.81	7.10543e-12
8	160042	23.91	7.4607e-12
8	160782	24.01	7.4607e-12
8	161517	24.11	7.81597e-12
8	162252	24.21	7.81597e-12
8	162987	24.31	7.81597e-12
8	163722	24.41	7.81597e-12
8	164457	24.51	8.17124e-12
8	165192	24.61	8.17124e-12
8	165927	24.71	8.17124e-12
8	166662	24.81	8.17124e-12
8	167397	24.91	8.17124e-12
8	168137	25.01	8.52651e-12
8	168872	25.11	8.52651e-12
8	169607	25.21	8.52651e-12
8	170342	25.31	8.52651e-12
8	171077	25.41	8.52651e-12
8	171812	25.51	8.52651e-12
8	172547	25.61	8.52651e-12
8	173282	25.71	8.52651e-12
8	174017	25.81	8.52651e-12
8	174752	25.91	8.52651e-12
8	175492	26.01	8.88178e-12
8	176227	26.11	8.88178e-12
8	176962	26.21	8.88178e-12
8	177697	26.31	8.88178e-12
8	178432	26.41	8.88178e-12
8	179167	26.51	8.88178e-12
8	179902	26.61	8.88178e-12
8	180637	26.71	8.88178e-12
8	181372	26.81	8.88178e-12
8	182107	26.91	8.88178e-12
8	182847	27.01	8.88178e-12
8	183582	27.11	8.88178e-12
8	184317	27.21	8.88178e-12
8	185052	27.31	8.88178e-12
8	185787	27.41	8.88178e-12
8	186522	27.51	8.88178e-12
8	187257	27.61	8.88178e-12
8	187992	27.71	8.88178e-12
8	188727	27.81	8.88178e-12
8	189462	27.91	8.88178e-12
8	190202	28.01	8.88178e-12
8	190937	28.11	8.88178e-12
8	191672	28.21	8.88178e-12
8	192407	28.31	8.88178e-12
8	193142	28.41	8.88178e-12
8	193877	28.51	8.88178e-12
8	194612	28.61	8.88178e-12
8	195347	28.71	8.88178e-12
8	196082	28.81	8.88178e-12
8	196817	28.91	8.88178e-12
8	197557	29.01	8.88178e-12
8	198292	29.11	8.88178e-12
8	199027	29.21	8.88178e-12
8	199762	29.31	8.88178e-12
8	200497	29.41	8.88178e-12
8	201232	29.51	8.88178e-12
8	201967	29.61	8.88178e-12
8	202702	29.71	8.88178e-12
8	203437	29.81	8.88178e-12
8	204172	29.91	8.88178e-12
8	204912	30.01	8.88178e-12
8	205647	30.11	8.88178e-12
8	206382	30.21	8.88178e-12
8	207117	30.31	8.88178e-12
8	207852	30.41	8.88178e-12
8	208587	30.51	8.88178e-12
8	209322	30.61	8.88178e-12
8	210057	30.71	8.88178e-12
8	210792	30.81	8.88178e-12
8	211527	30.91	8.88178e-12
8	212267	31.01	8.88178e-12
8	213002	31.11	8.88178e-12
8	213737	31.21	8.88178e-12
8	214472	31.31	8.88178e-12
8	215207	31.41	8.88178e-12
8	215942	31.51	8.88178e-12
8	216677	31.61	8.88178e-12
8	217412	31.71	8.88178e-12
8	218147	31.81	8.88178e-12
8	218882	31.91	8.88178e-12
8	219622	32.01	8.88178e-12
8	220357	32.11	8.88178e-12
8	221092	32.21	8.88178e-12
8	221827	32.31	8.88178e-12
8	222562	32.41	8.88178e-12
8	223297	32.51	8.88178e-12
8	224032	32.61	8.88178e-12
8	224767	32.71	8.88178e-12
8	225502	32.81	8.88178e-12
8	226237	32.91	8.88178e-12
8	226977	33.01	8.88178e-12
8	227712	33.11	8.88178e-12
8	228447	33.21	8.88178e-12
8	229182	33.31	8.88178e-12
8	229917	33.41	8.88178e-12
8	230652	33.51	8.88178e-12
8	231387	33.61	8.88178e-12
8	232122	33.71	8.88178e-12
8	232857	33.81	8.88178e-12
8	233592	33.91	8.88178e-12
8	234332	34.01	8.88178e-12
8	235067	34.11	8.88178e-12
8	235802	34.21	8.88178e-12
8	236537	34.31	8.88178e-12
8	237272	34.41	8.88178e-12
8	238007	34.51	8.88178e-12
8	238742	34.61	8.88178e-12
8	239477	34.71	8.88178e-12
8	240212	34.81	8.88178e-12
8	240947	34.91	8.88178e-12
8	241687	35.01	8.88178e-12
8	242422	35.11	8.88178e-12
8	243157	35.21	8.88178e-12
8	243892	35.31	8.88178e-12
8	244627	35.41	8.88178e-12
8	245362	35.51	8.88178e-12
8	246097	35.61	8.88178e-12
8	246832	35.71	8.88178e-12
8	247567	35.81	8.88178e-12
8	248302	35.91	8.88178e-12
8	249042	36.01	8.88178e-12
8	249777	36.11	8.88178e-12
8	250512	36.21	8.88178e-12
8	251247	36.31	8.88178e-12
8	251982	36.41	8.88178e-12
8	252717	36.51	8.88178e-12
8	253452	36.61	8.88178e-12
8	254187	36.71	8.88178e-12
8	254922	36.81	8.88178e-12
8	255657	36.91	8.88178e-12
8	256397	37.01	8.88178e-12
8	257132	37.11	8.88178e-12
8	257867	37.21	8.88178e-12
8	258602	37.31	8.88178e-12
8	259337	37.41	8.88178e-12
8	260072	37.51	8.88178e-12
8	260807	37.61	8.88178e-12
8	261542	37.71	8.88178e-12
8	262277	37.81	8.88178e-12
8	263012	37.91	8.88178e-12
8	263752	38.01	8.88178e-12
8	264487	38.11	8.88178e-12
8	265222	38.21	8.88178e-12
8	265957	38.31	8.88178e-12
8	266692	38.41	8.88178e-12
8	267427	38.51	8.88178e-12
8	268162	38.61	8.88178e-12
8	268897	38.71	8.88178e-12
8	269632	38.81	8.88178e-12
8	270367	38.91	8.88178e-12
8	271107	39.01	8.88178e-12
8	271842	39.11	8.88178e-12
8	272577	39.21	8.88178e-12
8	273312	39.31	8.88178e-12
8	274047	39.41	8.88178e-12
8	274782	39.51	8.88178e-12
8	275517	39.61	8.88178e-12
8	276252	39.71	8.88178e-12
8	276987	39.81	8.88178e-12
8	277722	39.91	8.88178e-12
8	278462	40.01	8.88178e-12
8	279197	40.11	8.88178e-12
8	279932	40.21	8.88178e-12
8	280667	40.31	8.88178e-12
8	281402	40.41	8.88178e-12
8	282137	40.51	8.88178e-12
8	282872	40.61	8.88178e-12
8	283607	40.71	8.88178e-12
8	284342	40.81	8.88178e-12
8	285077	40.91	8.88178e-12
8	285817	41.01	8.88178e-12
8	286552	41.11	8.88178e-12
8	287287	41.21	8.88178e-12
8	288022	41.31	8.88178e-12
8	288757	41.41	8.88178e-12
8	289492	41.51	8.88178e-12
8	290227	41.61	8.88178e-12
8	290962	41.71	8.88178e-12
8	291697	41.81	8.88178e-12
8	292432	41.91	8.88178e-12
8	293172	42.01	8.88178e-12
8	293907	42.11	8.88178e-12
8	294642	42.21	8.88178e-12
8	295377	42.31	8.88178e-12
8	296112	42.41	8.88178e-12
8	296847	42.51	8.88178e-12
8	297582	42.61	8.88178e-12
8	298317	42.71	8.88178e-12
8	299052	42.81	8.88178e-12
8	299787	42.91	8.88178e-12
8	300527	43.01	8.88178e-12
8	301262	43.11	8.88178e-12
8	301997	43.21	8.88178e-12
8	302732	43.31	8.88178e-12
8	303467	43.41	8.88178e-12
8	304202	43.51	8.88178e-12
8	304937	43.61	8.88178e-12
8	305672	43.71	8.88178e-12
8	306407	43.81	8.88178e-12
8	307142	43.91	8.88178e-12
8	307882	44.01	8.88178e-12
8	308617	44.11	8.88178e-12
8	309352	44.21	8.88178e-12
8	310087	44.31	8.88178e-12
8	310822	44.41	8.88178e-12
8	311557	44.51	8.88178e-12
8	312292	44.61	8.88178e-12
8	313027	44.71	8.88178e-12
8	313762	44.81	8.88178e-12
8	314497	44.91	8.88178e-12
8	315237	45.01	8.88178e-12
8	315972	45.11	8.88178e-12
8	316707	45.21	8.88178e-12
8	317442	45.31	8.88178e-12
8	318177	45.41	8.88178e-12
8	318912	45.51	8.88178e-12
8	319647	45.61	8.88178e-12
8	320382	45.71	8.88178e-12
8	321117	45.81	8.88178e-12
8	321852	45.91	8.88178e-12
8	322592	46.01	8.88178e-12
8	323327	46.11	8.88178e-12
8	324062	46.21	8.88178e-12
8	324797	46.31	8.88178e-12
8	325532	46.41	8.88178e-12
8	326267	46.51	8.88178e-12
8	327002	46.61	8.88178e-12
8	327737	46.71	8.88178e-12
8	328472	46.81	8.88178e-12
8	329207	46.91	8.88178e-12
8	329947	47.01	8.88178e-12
8	330682	47.11	8.88178e-12
8	331417	47.21	8.88178e-12
8	332152	47.31	8.88178e-12
8	332887	47.41	8.88178e-12
8	333622	47.51	8.88178e-12
8	334357	47.61	8.88178e-12
8	335092	47.71	8.88178e-12
8	335827	47.81	8.88178e-12
8	336562	47.91	8.88178e-12
8	337302	48.01	8.88178e-12
8	338037	48.11	8.88178e-12
8	338772	48.21	8.88178e-12
8	339507	48.31	8.88178e-12
8	340242	48.41	8.88178e-12
8	340977	48.51	8.88178e-12
8	341712	48.61	8.88178e-12
8	342447	48.71	8.88178e-12
8	343182	48.81	8.88178e-12
8	343917	48.91	8.88178e-12
8	344657	49.01	8.88178e-12
8	345392	49.11	8.88178e-12
8	346127	49.21	8.88178e-12
8	346862	49.31	8.88178e-12
8	347597	49.41	8.88178e-12
8	348332	49.51	8.88178e-12
8	349067	49.61	8.88178e-12
8	349802	49.71	8.88178e-12
8	350537	49.81	8.88178e-12
8	351272	49.91	8.88178e-12
8	352012	50.01	8.88178e-12
8	352747	50.11	8.88178e-12
8	353482	50.21	8.88178e-12
8	354217	50.31	8.88178e-12
8	354952	50.41	8.88178e-12
8	355687	50.51	8.88178e-12
8	356422	50.61	8.88178e-12
8	357157	50.71	8.88178e-12
8	357892	50.81	8.88178e-12
8	358627	50.91	8.88178e-12
8	359367	51.01	8.88178e-12
8	360102	51.11	8.88178e-12
8	360837	51.21	8.88178e-12
8	361572	51.31	8.88178e-12
8	362307	51.41	8.88178e-12
8	363042	51.51	8.88178e-12
8	363777	51.61	8.88178e-12
8	364512	51.71	8.88178e-12
8	365247	51.81	8.88178e-12
8	365982	51.91	8.88178e-12
8	366722	52.01	8.88178e-12
8	367457	52.11	8.88178e-12
8	368192	52.21	8.88178e-12
8	368927	52.31	8.88178e-12
8	369662	52.41	8.88178e-12
8	370397	52.51	8.88178e-12
8	371132	52.61	8.88178e-12
8	371867	52.71	8.88178e-12
8	372602	52.81	8.88178e-12
8	373337	52.91	8.88178e-12
8	374077	53.01	8.88178e-12
8	374812	53.11	8.88178e-12
8	375547	53.21	8.88178e-12
8	376282	53.31	8.88178e-12
8	377017	53.41	8.88178e-12
8	377752	53.51	8.88178e-12
8	378487	53.61	8.88178e-12
8	379222	53.71	8.88178e-12
8	379957	53.81	8.88178e-12
8	380692	53.91	8.88178e-12
8	381432	54.01	8.88178e-12
8	382167	54.11	8.88178e-12
8	382902	54.21	8.88178e-12
8	383637	54.31	8.88178e-12
8	384372	54.41	8.88178e-12
8	385107	54.51	8.88178e-12
8	386384	54.61	8.88178e-12
8	387573	54.71	8.88178e-12
8	388308	54.81	8.88178e-12
8	389043	54.91	8.88178e-12
8	389783	55.01	8.88178e-12
8	390518	55.11	8.88178e-12
8	391253	55.21	8.88178e-12
8	391988	55.31	8.88178e-12
8	392723	55.41	8.88178e-12
8	393458	55.51	8.88178e-12
8	394193	55.61	8.88178e-12
8	394928	55.71	8.88178e-12
8	395663	55.81	8.88178e-12
8	396398	55.91	8.88178e-12
8	397138	56.01	8.88178e-12
8	397873	56.11	8.88178e-12
8	398608	56.21	8.88178e-12
8	399343	56.31	8.88178e-12
8	400078	56.41	8.88178e-12
8	400813	56.51	8.88178e-12
8	401548	56.61	8.88178e-12
8	402283	56.71	8.88178e-12
8	403018	56.81	8.88178e-12
8	403753	56.91	8.88178e-12
8	404493	57.01	8.88178e-12
8	405228	57.11	8.88178e-12
8	405963	57.21	8.88178e-12
8	406698	57.31	8.88178e-12
8	407433	57.41	8.88178e-12
8	408168	57.51	8.88178e-12
8	408903	57.61	8.88178e-12
8	409638	57.71	8.88178e-12
8	410373	57.81	8.88178e-12
8	411108	57.91	8.88178e-12
8	411848	58.01	8.88178e-12
8	412583	58.11	8.88178e-12
8	413318	58.21	8.88178e-12
8	414053	58.31	8.88178e-12
8	414788	58.41	8.88178e-12
8	415523	58.51	8.88178e-12
8	416258	58.61	8.88178e-12
8	416993	58.71	8.88178e-12
8	417728	58.81	8.88178e-12
8	418463	58.91	8.88178e-12
8	419203	59.01	8.88178e-12
8	419938	59.11	8.88178e-12
8	420673	59.21	8.88178e-12
8	421408	59.31	8.88178e-12
8	422143	59.41	8.88178e-12
8	422878	59.51	8.88178e-12
8	423613	59.61	8.88178e-12
8	424348	59.71	8.88178e-12
8	425083	59.81	8.88178e-12
8	425818	59.91	8.88178e-12
8	426558	60.01	8.88178e-12
8	427293	60.11	8.88178e-12
8	428028	60.21	8.88178e-12
8	428763	60.31	8.88178e-12
8	429498	60.41	8.88178e-12
8	430233	60.51	8.88178e-12
8	430968	60.61	8.88178e-12
8	431703	60.71	8.88178e-12
8	432438	60.81	8.88178e-12
8	433173	60.91	8.88178e-12
8	433913	61.01	8.88178e-12
8	434648	61.11	8.88178e-12
8	435383	61.21	8.88178e-12
8	436118	61.31	8.88178e-12
8	436853	61.41	8.88178e-12
8	437588	61.51	8.88178e-12
8	438323	61.61	8.88178e-12
8	439058	61.71	8.88178e-12
8	439793	61.81	8.88178e-12
8	440528	61.91	8.88178e-12
8	441268	62.01	8.88178e-12
8	442003	62.11	8.88178e-12
8	442738	62.21	8.88178e-12
8	443473	62.31	8.88178e-12
8	444208	62.41	8.88178e-12
8	444943	62.51	8.88178e-12
8	445678	62.61	8.88178e-12
8	446413	62.71	8.88178e-12
8	447148	62.81	8.88178e-12
8	447883	62.91	8.88178e-12
8	448623	63.01	8.88178e-12
8	449358	63.11	8.88178e-12
8	450093	63.21	8.88178e-12
8	450828	63.31	8.88178e-12
8	451563	63.41	8.88178e-12
8	452298	63.51	8.88178e-12
8	453033	63.61	8.88178e-12
8	453768	63.71	8.88178e-12
8	454503	63.81	8.88178e-12
8	455238	63.91	8.88178e-12
8	455978	64.01	8.88178e-12
8	456713	64.11	8.88178e-12
8	457448	64.21	8.88178e-12
8	458183	64.31	8.88178e-12
8	458918	64.41	8.88178e-12
8	459653	64.51	8.88178e-12
8	460388	64.61	8.88178e-12
8	461123	64.71	8.88178e-12
8	461858	64.81	8.88178e-12
8	462593	64.91	8.88178e-12
8	463333	65.01	8.88178e-12
8	464068	65.11	8.88178e-12
8	464803	65.21	8.88178e-12
8	465538	65.31	8.88178e-12
8	466273	65.41	8.88178e-12
8	467008	65.51	8.88178e-12
8	467743	65.61	8.88178e-12
8	468478	65.71	8.88178e-12
8	469213	65.81	8.88178e-12
8	469948	65.91	8.88178e-12
8	470688	66.01	8.88178e-12
8	471423	66.11	8.88178e-12
8	472158	66.21	8.88178e-12
8	472893	66.31	8.88178e-12
8	473628	66.41	8.88178e-12
8	474363	66.51	8.88178e-12
8	475098	66.61	8.88178e-12
8	475833	66.71	8.88178e-12
8	476568	66.81	8.88178e-12
8	477303	66.91	8.88178e-12
8	478043	67.01	8.88178e-12
8	478778	67.11	8.88178e-12
8	479513	67.21	8.88178e-12
8	480248	67.31	8.88178e-12
8	480983	67.41	8.88178e-12
8	481718	67.51	8.88178e-12
8	482453	67.61	8.88178e-12
8	483188	67.71	8.88178e-12
8	483923	67.81	8.88178e-12
8	484658	67.91	8.88178e-12
8	485398	68.01	8.88178e-12
8	486133	68.11	8.88178e-12
8	486868	68.21	8.88178e-12
8	487603	68.31	8.88178e-12
8	488338	68.41	8.88178e-12
8	489073	68.51	8.88178e-12
8	489808	68.61	8.88178e-12
8	490543	68.71	8.88178e-12
8	491278	68.81	8.88178e-12
8	492013	68.91	8.88178e-12
8	492753	69.01	8.88178e-12
8	493488	69.11	8.88178e-12
8	494223	69.21	8.88178e-12
8	494958	69.31	8.88178e-12
8	495693	69.41	8.88178e-12
8	496428	69.51	8.88178e-12
8	497163	69.61	8.88178e-12
8	497898	69.71	8.88178e-12
8	498633	69.81	8.88178e-12
8	499368	69.91	8.88178e-12
8	500108	70.01	8.88178e-12
8	500843	70.11	8.88178e-12
8	501578	70.21	8.88178e-12
8	502313	70.31	8.88178e-12
8	503048	70.41	8.88178e-12
8	503783	70.51	8.88178e-12
8	504518	70.61	8.88178e-12
8	505253	70.71	8.88178e-12
8	505988	70.81	8.88178e-12
8	506723	70.91	8.88178e-12
8	507463	71.01	8.88178e-12
8	508198	71.11	8.88178e-12
8	508933	71.21	8.88178e-12
8	509668	71.31	8.88178e-12
8	510403	71.41	8.88178e-12
8	511138	71.51	8.88178e-12
8	511873	71.61	8.88178e-12
8	512608	71.71	8.88178e-12
8	513343	71.81	8.88178e-12
8	514078	71.91	8.88178e-12
8	514818	72.01	8.88178e-12
8	515553	72.11	8.88178e-12
8	516288	72.21	8.88178e-12
8	517023	72.31	8.88178e-12
8	517758	72.41	8.88178e-12
8	518493	72.51	8.88178e-12
8	519228	72.61	8.88178e-12
8	519963	72.71	8.88178e-12
8	520698	72.81	8.88178e-12
8	521433	72.91	8.88178e-12
8	522173	73.01	8.88178e-12
8	522908	73.11	8.88178e-12
8	523643	73.21	8.88178e-12
8	524378	73.31	8.88178e-12
8	525113	73.41	8.88178e-12
8	525848	73.51	8.88178e-12
8	526583	73.61	8.88178e-12
8	527318	73.71	8.88178e-12
8	528053	73.81	8.88178e-12
8	528788	73.91	8.88178e-12
8	529528	74.01	8.88178e-12
8	530263	74.11	8.88178e-12
8	530998	74.21	8.88178e-12
8	531733	74.31	8.88178e-12
8	532468	74.41	8.88178e-12
8	533203	74.51	8.88178e-12
8	533938	74.61	8.88178e-12
8	534673	74.71	8.88178e-12
8	535408	74.81	8.88178e-12
8	536143	74.91	8.88178e-12
8	536883	75.01	8.88178e-12
8	537618	75.11	8.88178e-12
8	538353	75.21	8.88178e-12
8	539088	75.31	8.88178e-12
8	539823	75.41	8.88178e-12
8	540558	75.51	8.88178e-12
8	541293	75.61	8.88178e-12
8	542028	75.71	8.88178e-12
8	542763	75.81	8.88178e-12
8	543498	75.91	8.88178e-12
8	544238	76.01	8.88178e-12
8	544973	76.11	8.88178e-12
8	545708	76.21	8.88178e-12
8	546443	76.31	8.88178e-12
8	547178	76.41	8.88178e-12
8	547913	76.51	8.88178e-12
8	548648	76.61	8.88178e-12
8	549383	76.71	8.88178e-12
8	550118	76.81	8.88178e-12
8	550853	76.91	8.88178e-12
8	551593	77.01	8.88178e-12
8	552328	77.11	8.88178e-12
8	553063	77.21	8.88178e-12
8	553798	77.31	8.88178e-12
8	554533	77.41	8.88178e-12
8	555268	77.51	8.88178e-12
8	556003	77.61	8.88178e-12
8	556738	77.71	8.88178e-12
8	557473	77.81	8.88178e-12
8	558208	77.91	8.88178e-12
8	558948	78.01	8.88178e-12
8	559683	78.11	8.88178e-12
8	560418	78.21	8.88178e-12
8	561153	78.31	8.88178e-12
8	561888	78.41	8.88178e-12
8	562623	78.51	8.88178e-12
8	563358	78.61	8.88178e-12
8	564093	78.71	8.88178e-12
8	564828	78.81	8.88178e-12
8	565563	78.91	8.88178e-12
8	566303	79.01	8.88178e-12
8	567038	79.11	8.88178e-12
8	567773	79.21	8.88178e-12
8	568508	79.31	8.88178e-12
8	569243	79.41	8.88178e-12
8	569978	79.51	8.88178e-12
8	570713	79.61	8.88178e-12
8	571448	79.71	8.88178e-12
8	572183	79.81	8.88178e-12
8	572918	79.91	8.88178e-12
8	573658	80.01	8.88178e-12
8	574393	80.11	8.88178e-12
8	575128	80.21	8.88178e-12
8	575863	80.31	8.88178e-12
8	576598	80.41	8.88178e-12
8	577333	80.51	8.88178e-12
8	578068	80.61	8.88178e-12
8	578803	80.71	8.88178e-12
8	579538	80.81	8.88178e-12
8	580273	80.91	8.88178e-12
8	581013	81.01	8.88178e-12
8	581748	81.11	8.88178e-12
8	582483	81.21	8.88178e-12
8	583218	81.31	8.88178e-12
8	583953	81.41	8.88178e-12
8	584688	81.51	8.88178e-12
8	585423	81.61	8.88178e-12
8	586158	81.71	8.88178e-12
8	586893	81.81	8.88178e-12
8	587628	81.91	8.88178e-12
8	588368	82.01	8.88178e-12
8	589103	82.11	8.88178e-12
8	589838	82.21	8.88178e-12
8	590573	82.31	8.88178e-12
8	591308	82.41	8.88178e-12
8	592043	82.51	8.88178e-12
8	592778	82.61	8.88178e-12
8	593513	82.71	8.88178e-12
8	594248	82.81	8.88178e-12
8	594983	82.91	8.88178e-12
8	595723	83.01	8.88178e-12
8	596458	83.11	8.88178e-12
8	597193	83.21	8.88178e-12
8	597928	83.31	8.88178e-12
8	598663	83.41	8.88178e-12
8	599398	83.51	8.88178e-12
8	600133	83.61	8.88178e-12
8	600868	83.71	8.88178e-12
8	601603	83.81	8.88178e-12
8	602338	83.91	8.88178e-12
8	603078	84.01	8.88178e-12
8	603813	84.11	8.88178e-12
8	604548	84.21	8.88178e-12
8	605283	84.31	8.88178e-12
8	606018	84.41	8.88178e-12
8	606753	84.51	8.88178e-12
8	607488	84.61	8.88178e-12
8	608223	84.71	8.88178e-12
8	608958	84.81	8.88178e-12
8	609693	84.91	8.88178e-12
8	610433	85.01	8.88178e-12
8	611168	85.11	8.88178e-12
8	611903	85.21	8.88178e-12
8	612638	85.31	8.88178e-12
8	613373	85.41	8.88178e-12
8	614108	85.51	8.88178e-12
8	614843	85.61	8.88178e-12
8	615578	85.71	8.88178e-12
8	616313	85.81	8.88178e-12
8	617048	85.91	8.88178e-12
8	617788	86.01	8.88178e-12
8	618523	86.11	8.88178e-12
8	619258	86.21	8.88178e-12
8	619993	86.31	8.88178e-12
8	620728	86.41	8.88178e-12
8	621463	86.51	8.88178e-12
8	622198	86.61	8.88178e-12
8	622933	86.71	8.88178e-12
8	623668	86.81	8.88178e-12
8	624403	86.91	8.88178e-12
8	625143	87.01	8.88178e-12
8	625878	87.11	8.88178e-12
8	626613	87.21	8.88178e-12
8	627348	87.31	8.88178e-12
8	628083	87.41	8.88178e-12
8	628818	87.51	8.88178e-12
8	629553	87.61	8.88178e-12
8	630288	87.71	8.88178e-12
8	631023	87.81	8.88178e-12
8	631758	87.91	8.88178e-12
8	632498	88.01	8.88178e-12
8	633233	88.11	8.88178e-12
8	633968	88.21	8.88178e-12
8	634703	88.31	8.88178e-12
8	635438	88.41	8.88178e-12
8	636173	88.51	8.88178e-12
8	636908	88.61	8.88178e-12
8	637643	88.71	8.88178e-12
8	638378	88.81	8.88178e-12
8	639113	88.91	8.88178e-12
8	639853	89.01	8.88178e-12
8	640588	89.11	8.88178e-12
8	641323	89.21	8.88178e-12
8	642058	89.31	8.88178e-12
8	642793	89.41	8.88178e-12
8	643528	89.51	8.88178e-12
8	644263	89.61	8.88178e-12
8	644998	89.71	8.88178e-12
8	645733	89.81	8.88178e-12
8	646468	89.91	8.88178e-12
8	647208	90.01	8.88178e-12
8	647943	90.11	8.88178e-12
8	648678	90.21	8.88178e-12
8	649413	90.31	8.88178e-12
8	650148	90.41	8.88178e-12
8	650883	90.51	8.88178e-12
8	651618	90.61	8.88178e-12
8	652353	90.71	8.88178e-12
8	653088	90.81	8.88178e-12
8	653823	90.91	8.88178e-12
8	654563	91.01	8.88178e-12
8	655298	91.11	8.88178e-12
8	656033	91.21	8.88178e-12
8	656768	91.31	8.88178e-12
8	657503	91.41	8.88178e-12
8	658238	91.51	8.88178e-12
8	658973	91.61	8.88178e-12
8	659708	91.71	8.88178e-12
8	660443	91.81	8.88178e-12
8	661178	91.91	8.88178e-12
8	661918	92.01	8.88178e-12
8	662653	92.11	8.88178e-12
8	663388	92.21	8.88178e-12
8	664123	92.31	8.88178e-12
8	664858	92.41	8.88178e-12
8	665593	92.51	8.88178e-12
8	666328	92.61	8.88178e-12
8	667063	92.71	8.88178e-12
8	667798	92.81	8.88178e-12
8	668533	92.91	8.88178e-12
8	669273	93.01	8.88178e-12
8	670008	93.11	8.88178e-12
8	670743	93.21	8.88178e-12
8	671478	93.31	8.88178e-12
8	672213	93.41	8.88178e-12
8	672948	93.51	8.88178e-12
8	673683	93.61	8.88178e-12
8	674418	93.71	8.88178e-12
8	675153	93.81	8.88178e-12
8	675888	93.91	8.88178e-12
8	676628	94.01	8.88178e-12
8	677363	94.11	8.88178e-12
8	678098	94.21	8.88178e-12
8	678833	94.31	8.88178e-12
8	679568	94.41	8.88178e-12
8	680303	94.51	8.88178e-12
8	681038	94.61	8.88178e-12
8	681773	94.71	8.88178e-12
8	682508	94.81	8.88178e-12
8	683243	94.91	8.88178e-12
8	683983	95.01	8.88178e-12
8	684718	95.11	8.88178e-12
8	685453	95.21	8.88178e-12
8	686188	95.31	8.88178e-12
8	686923	95.41	8.88178e-12
8	687658	95.51	8.88178e-12
8	688393	95.61	8.88178e-12
8	689128	95.71	8.88178e-12
8	689863	95.81	8.88178e-12
8	690598	95.91	8.88178e-12
8	691338	96.01	8.88178e-12
8	692073	96.11	8.88178e-12
8	692808	96.21	8.88178e-12
8	693543	96.31	8.88178e-12
8	694278	96.41	8.88178e-12
8	695013	96.51	8.88178e-12
8	695748	96.61	8.88178e-12
8	696483	96.71	8.88178e-12
8	697218	96.81	8.88178e-12
8	697953	96.91	8.88178e-12
8	698693	97.01	8.88178e-12
8	699428	97.11	8.88178e-12
8	700163	97.21	8.88178e-12
8	700898	97.31	8.88178e-12
8	701633	97.41	8.88178e-12
8	702368	97.51	8.88178e-12
7	632	1.11	-0.000358191
7	1192	1.21	-0.000681704
7	1752	1.31	-0.00093487
7	2312	1.41	-0.00112579
7	2873	1.51	-0.00126221
7	3433	1.61	-0.00135149
7	3993	1.71	-0.00140049
7	4554	1.81	-0.00141557
7	5114	1.91	-0.00140255
7	5680	2.01	-0.00136671
7	6240	2.11	-0.0013128
7	6800	2.21	-0.00124502
7	7360	2.31	-0.0011671
7	7920	2.41	-0.00108223
7	8480	2.51	-0.000993208
7	9040	2.61	-0.000902362
7	9600	2.71	-0.000811651
7	10160	2.81	-0.000722679
7	10720	2.91	-0.000636729
7	11284	3.01	-0.0005548
7	11844	3.11	-0.000477639
7	12404	3.21	-0.000405773
7	12964	3.31	-0.00033954
7	13524	3.41	-0.000279116
7	14084	3.51	-0.000224541
7	14644	3.61	-0.000175743
7	15204	3.71	-0.00013256
7	15764	3.81	-9.47571e-05
7	16324	3.91	-6.2046e-05
7	16888	4.01	-3.40986e-05
7	17448	4.11	-1.05605e-05
7	18008	4.21	8.93844e-06
7	18568	4.31	2.4774e-05
7	19128	4.41	3.73203e-05
7	19688	4.51	4.69433e-05
7	20248	4.61	5.39956e-05
7	20808	4.71	5.88124e-05
7	21368	4.81	6.1709e-05
7	21928	4.91	6.29785e-05
7	22492	5.01	6.28903e-05
7	23052	5.11	6.169e-05
7	23612	5.21	5.95988e-05
7	24172	5.31	5.68144e-05
7	24732	5.41	5.35112e-05
7	25292	5.51	4.98416e-05
7	25852	5.61	4.59373e-05
7	26412	5.71	4.19105e-05
7	26972	5.81	3.78555e-05
7	27532	5.91	3.38499e-05
7	28097	6.01	2.99569e-05
7	28791	6.11	2.62259e-05
7	29526	6.21	2.26948e-05
7	30261	6.31	1.93911e-05
7	30997	6.41	1.6333e-05
7	31732	6.51	1.35314e-05
7	32467	6.61	1.09904e-05
7	33202	6.71	8.70882e-06
7	33937	6.81	6.6809e-06
7	34672	6.91	4.89747e-06
7	35412	7.01	3.3466e-06
7	36147	7.11	2.01432e-06
7	36882	7.21	8.85256e-07
7	37617	7.31	-5.68459e-08
7	38352	7.41	-8.28678e-07
7	39087	7.51	-1.44699e-06
7	39822	7.61	-1.92826e-06
7	40557	7.71	-2.28849e-06
7	41292	7.81	-2.54296e-06
7	42027	7.91	-2.7061e-06
7	42767	8.01	-2.79139e-06
7	43502	8.11	-2.8113e-06
7	44237	8.21	-2.77721e-06
7	44972	8.31	-2.69943e-06
7	45707	8.41	-2.58721e-06
7	46442	8.51	-2.44874e-06
7	47177	8.61	-2.29123e-06
7	47912	8.71	-2.12092e-06
7	48647	8.81	-1.94317e-06
7	49382	8.91	-1.7625e-06
7	50122	9.01	-1.58267e-06
7	50857	9.11	-1.40677e-06
7	51592	9.21	-1.23723e-06
7	52327	9.31	-1.07596e-06
7	53062	9.41	-9.24364e-07
7	53797	9.51	-7.83424e-07
7	54532	9.61	-6.53753e-07
7	55267	9.71	-5.35652e-07
7	56002	9.81	-4.2916e-07
7	56737	9.91	-3.34103e-07
7	57477	10.01	-2.5013e-07
7	58212	10.11	-1.76757e-07
7	58947	10.21	-1.13395e-07
7	59682	10.31	-5.93825e-08
7	60417	10.41	-1.40084e-08
7	61152	10.51	2.34657e-08
7	61887	10.61	5.3787e-08
7	62622	10.71	7.76954e-08
7	63357	10.81	9.59155e-08
7	64092	10.91	1.09142e-07
7	64832	11.01	1.18035e-07
7	65567	11.11	1.23212e-07
7	66302	11.21	1.2525e-07
7	67037	11.31	1.24675e-07
7	67772	11.41	1.21968e-07
7	68507	11.51	1.17559e-07
7	69242	11.61	1.11834e-07
7	69977	11.71	1.05132e-07
7	70712	11.81	9.77476e-08
7	71447	11.91	8.99373e-08
7	72187	12.01	8.19171e-08
7	72922	12.11	7.38677e-08
7	73657	12.21	6.59401e-08
7	74392	12.31	5.82538e-08
7	75127	12.41	5.09036e-08
7	75862	12.51	4.39606e-08
7	76597	12.61	3.74765e-08
7	77332	12.71	3.14852e-08
7	78067	12.81	2.60055e-08
7	78802	12.91	2.10438e-08
7	79542	13.01	1.65958e-08
7	80277	13.11	1.26498e-08
7	81012	13.21	9.18554e-09
7	81747	13.31	6.17888e-09
7	82482	13.41	3.60174e-09
7	83217	13.51	1.42322e-09
7	83952	13.61	-3.90088e-10
7	84687	13.71	-1.8705e-09
7	85422	13.81	-3.05107e-09
7	86157	13.91	-3.96518e-09
7	86897	14.01	-4.64375e-09
7	87632	14.11	-5.11768e-09
7	88367	14.21	-5.41434e-09
7	89102	14.31	-5.56071e-09
7	89837	14.41	-5.58096e-09
7	90572	14.51	-5.49747e-09
7	91307	14.61	-5.33085e-09
7	92042	14.71	-5.09743e-09
7	92777	14.81	-4.81464e-09
7	93512	14.91	-4.49667e-09
7	94252	15.01	-4.15525e-09
7	94987	15.11	-3.80034e-09
7	95722	15.21	-3.44151e-09
7	96457	15.31	-3.08518e-09
7	97192	15.41	-2.73772e-09
7	97927	15.51	-2.40306e-09
7	98662	15.61	-2.08544e-09
7	99397	15.71	-1.78773e-09
7	100132	15.81	-1.51132e-09
7	100867	15.91	-1.25766e-09
7	101608	16.01	-1.02673e-09
7	102677	16.11	-8.18901e-10
7	103412	16.21	-6.33804e-10
7	104147	16.31	-4.70735e-10
7	104882	16.41	-3.28271e-10
7	105617	16.51	-2.05702e-10
7	106352	16.61	-1.00897e-10
7	107087	16.71	-1.35003e-11
7	107822	16.81	5.82645e-11
7	108557	16.91	1.16174e-10
7	109297	17.01	1.61648e-10
7	110032	17.11	1.95755e-10
7	110767	17.21	2.20624e-10
7	111502	17.31	2.36966e-10
7	112237	17.41	2.45848e-10
7	112972	17.51	2.4869e-10
7	113707	17.61	2.46914e-10
7	114442	17.71	2.40874e-10
7	115177	17.81	2.31282e-10
7	115912	17.91	2.19913e-10
7	116652	18.01	2.05702e-10
7	117387	18.11	1.91491e-10
7	118122	18.21	1.7657e-10
7	118857	18.31	1.59872e-10
7	119592	18.41	1.44595e-10
7	120327	18.51	1.30385e-10
7	121062	18.61	1.16174e-10
7	121797	18.71	1.01963e-10
7	122532	18.81	8.7752e-11
7	123267	18.91	7.35412e-11
7	124007	19.01	6.21725e-11
7	124742	19.11	5.15143e-11
7	125477	19.21	4.08562e-11
7	126212	19.31	3.16192e-11
7	126947	19.41	2.45137e-11
7	127682	19.51	1.74083e-11
7	128417	19.61	1.03029e-11
7	129152	19.71	6.03961e-12
7	129887	19.81	2.4869e-12
7	130622	19.91	-1.06581e-12
7	131362	20.01	-4.61853e-12
7	132097	20.11	-8.17124e-12
7	132832	20.21	-8.88178e-12
7	133567	20.31	-8.88178e-12
7	134302	20.41	-8.88178e-12
7	135037	20.51	-8.88178e-12
7	135772	20.61	-8.88178e-12
7	136507	20.71	-8.88178e-12
7	137242	20.81	-8.88178e-12
7	137977	20.91	-8.88178e-12
7	138717	21.01	-8.88178e-12
7	139452	21.11	-8.88178e-12
7	140187	21.21	-8.88178e-12
7	140922	21.31	-8.88178e-12
7	141657	21.41	-8.88178e-12
7	142392	21.51	-8.88178e-12
7	143127	21.61	-8.88178e-12
7	143862	21.71	-8.88178e-12
7	144597	21.81	-8.88178e-12
7	145332	21.91	-8.88178e-12
7	146072	22.01	-8.88178e-12
7	146807	22.11	-8.88178e-12
7	147542	22.21	-8.17124e-12
7	148277	22.31	-7.4607e-12
7	149012	22.41	-6.75016e-12
7	149747	22.51	-6.03961e-12
7	150482	22.61	-5.68434e-12
7	151217	22.71	-4.9738e-12
7	151952	22.81	-4.61853e-12
7	152687	22.91	-4.26326e-12
7	153427	23.01	-3.55271e-12
7	154162	23.11	-3.19744e-12
7	154897	23.21	-3.19744e-12
7	155632	23.31	-2.84217e-12
7	156367	23.41	-2.4869e-12
7	157102	23.51	-2.13163e-12
7	157837	23.61	-2.13163e-12
7	158572	23.71	-1.77636e-12
7	159307	23.81	-1.77636e-12
7	160042	23.91	-1.42109e-12
7	160782	24.01	-1.42109e-12
7	161517	24.11	-1.06581e-12
7	162252	24.21	-1.06581e-12
7	162987	24.31	-1.06581e-12
7	163722	24.41	-1.06581e-12
7	164457	24.51	-7.10543e-13
7	165192	24.61	-7.10543e-13
7	165927	24.71	-7.10543e-13
7	166662	24.81	-7.10543e-13
7	167397	24.91	-7.10543e-13
7	168137	25.01	-3.55271e-13
7	168872	25.11	-3.55271e-13
7	169607	25.21	-3.55271e-13
7	170342	25.31	-3.55271e-13
7	171077	25.41	-3.55271e-13
7	171812	25.51	-3.55271e-13
7	172547	25.61	-3.55271e-13
7	173282	25.71	-3.55271e-13
7	174017	25.81	-3.55271e-13
7	174752	25.91	-3.55271e-13
7	175492	26.01	0
7	176227	26.11	0
7	176962	26.21	0
7	177697	26.31	0
7	178432	26.41	0
7	179167	26.51	0
7	179902	26.61	0
7	180637	26.71	0
7	181372	26.81	0
7	182107	26.91	0
7	182847	27.01	0
7	183582	27.11	0
7	184317	27.21	0
7	185052	27.31	0
7	185787	27.41	0
7	186522	27.51	0
7	187257	27.61	0
7	187992	27.71	0
7	188727	27.81	0
7	189462	27.91	0
7	190202	28.01	0
7	190937	28.11	0
7	191672	28.21	0
7	192407	28.31	0
7	193142	28.41	0
7	193877	28.51	0
7	194612	28.61	0
7	195347	28.71	0
7	196082	28.81	0
7	196817	28.91	0
7	197557	29.01	0
7	198292	29.11	0
7	199027	29.21	0
7	199762	29.31	0
7	200497	29.41	0
7	201232	29.51	0
7	201967	29.61	0
7	202702	29.71	0
7	203437	29.81	0
7	204172	29.91	0
7	204912	30.01	0
7	205647	30.11	0
7	206382	30.21	0
7	207117	30.31	0
7	207852	30.41	0
7	208587	30.51	0
7	209322	30.61	0
7	210057	30.71	0
7	210792	30.81	0
7	211527	30.91	0
7	212267	31.01	0
7	213002	31.11	0
7	213737	31.21	0
7	214472	31.31	0
7	215207	31.41	0
7	215942	31.51	0
7	216677	31.61	0
7	217412	31.71	0
7	218147	31.81	0
7	218882	31.91	0
7	219622	32.01	0
7	220357	32.11	0
7	221092	32.21	0
7	221827	32.31	0
7	222562	32.41	0
7	223297	32.51	0
7	224032	32.61	0
7	224767	32.71	0
7	225502	32.81	0
7	226237	32.91	0
7	226977	33.01	0
7	227712	33.11	0
7	228447	33.21	0
7	229182	33.31	0
7	229917	33.41	0
7	230652	33.51	0
7	231387	33.61	0
7	232122	33.71	0
7	232857	33.81	0
7	233592	33.91	0
7	234332	34.01	0
7	235067	34.11	0
7	235802	34.21	0
7	236537	34.31	0
7	237272	34.41	0
7	238007	34.51	0
7	238742	34.61	0
7	239477	34.71	0
7	240212	34.81	0
7	240947	34.91	0
7	241687	35.01	0
7	242422	35.11	0
7	243157	35.21	0
7	243892	35.31	0
7	244627	35.41	0
7	245362	35.51	0
7	246097	35.61	0
7	246832	35.71	0
7	247567	35.81	0
7	248302	35.91	0
7	249042	36.01	0
7	249777	36.11	0
7	250512	36.21	0
7	251247	36.31	0
7	251982	36.41	0
7	252717	36.51	0
7	253452	36.61	0
7	254187	36.71	0
7	254922	36.81	0
7	255657	36.91	0
7	256397	37.01	0
7	257132	37.11	0
7	257867	37.21	0
7	258602	37.31	0
7	259337	37.41	0
7	260072	37.51	0
7	260807	37.61	0
7	261542	37.71	0
7	262277	37.81	0
7	263012	37.91	0
7	263752	38.01	0
7	264487	38.11	0
7	265222	38.21	0
7	265957	38.31	0
7	266692	38.41	0
7	267427	38.51	0
7	268162	38.61	0
7	268897	38.71	0
7	269632	38.81	0
7	270367	38.91	0
7	271107	39.01	0
7	271842	39.11	0
7	272577	39.21	0
7	273312	39.31	0
7	274047	39.41	0
7	274782	39.51	0
7	275517	39.61	0
7	276252	39.71	0
7	276987	39.81	0
7	277722	39.91	0
7	278462	40.01	0
7	279197	40.11	0
7	279932	40.21	0
7	280667	40.31	0
7	281402	40.41	0
7	282137	40.51	0
7	282872	40.61	0
7	283607	40.71	0
7	284342	40.81	0
7	285077	40.91	0
7	285817	41.01	0
7	286552	41.11	0
7	287287	41.21	0
7	288022	41.31	0
7	288757	41.41	0
7	289492	41.51	0
7	290227	41.61	0
7	290962	41.71	0
7	291697	41.81	0
7	292432	41.91	0
7	293172	42.01	0
7	293907	42.11	0
7	294642	42.21	0
7	295377	42.31	0
7	296112	42.41	0
7	296847	42.51	0
7	297582	42.61	0
7	298317	42.71	0
7	299052	42.81	0
7	299787	42.91	0
7	300527	43.01	0
7	301262	43.11	0
7	301997	43.21	0
7	302732	43.31	0
7	303467	43.41	0
7	304202	43.51	0
7	304937	43.61	0
7	305672	43.71	0
7	306407	43.81	0
7	307142	43.91	0
7	307882	44.01	0
7	308617	44.11	0
7	309352	44.21	0
7	310087	44.31	0
7	310822	44.41	0
7	311557	44.51	0
7	312292	44.61	0
7	313027	44.71	0
7	313762	44.81	0
7	314497	44.91	0
7	315237	45.01	0
7	315972	45.11	0
7	316707	45.21	0
7	317442	45.31	0
7	318177	45.41	0
7	318912	45.51	0
7	319647	45.61	0
7	320382	45.71	0
7	321117	45.81	0
7	321852	45.91	0
7	322592	46.01	0
7	323327	46.11	0
7	324062	46.21	0
7	324797	46.31	0
7	325532	46.41	0
7	326267	46.51	0
7	327002	46.61	0
7	327737	46.71	0
7	328472	46.81	0
7	329207	46.91	0
7	329947	47.01	0
7	330682	47.11	0
7	331417	47.21	0
7	332152	47.31	0
7	332887	47.41	0
7	333622	47.51	0
7	334357	47.61	0
7	335092	47.71	0
7	335827	47.81	0
7	336562	47.91	0
7	337302	48.01	0
7	338037	48.11	0
7	338772	48.21	0
7	339507	48.31	0
7	340242	48.41	0
7	340977	48.51	0
7	341712	48.61	0
7	342447	48.71	0
7	343182	48.81	0
7	343917	48.91	0
7	344657	49.01	0
7	345392	49.11	0
7	346127	49.21	0
7	346862	49.31	0
7	347597	49.41	0
7	348332	49.51	0
7	349067	49.61	0
7	349802	49.71	0
7	350537	49.81	0
7	351272	49.91	0
7	352012	50.01	0
7	352747	50.11	0
7	353482	50.21	0
7	354217	50.31	0
7	354952	50.41	0
7	355687	50.51	0
7	356422	50.61	0
7	357157	50.71	0
7	357892	50.81	0
7	358627	50.91	0
7	359367	51.01	0
7	360102	51.11	0
7	360837	51.21	0
7	361572	51.31	0
7	362307	51.41	0
7	363042	51.51	0
7	363777	51.61	0
7	364512	51.71	0
7	365247	51.81	0
7	365982	51.91	0
7	366722	52.01	0
7	367457	52.11	0
7	368192	52.21	0
7	368927	52.31	0
7	369662	52.41	0
7	370397	52.51	0
7	371132	52.61	0
7	371867	52.71	0
7	372602	52.81	0
7	373337	52.91	0
7	374077	53.01	0
7	374812	53.11	0
7	375547	53.21	0
7	376282	53.31	0
7	377017	53.41	0
7	377752	53.51	0
7	378487	53.61	0
7	379222	53.71	0
7	379957	53.81	0
7	380692	53.91	0
7	381432	54.01	0
7	382167	54.11	0
7	382902	54.21	0
7	383637	54.31	0
7	384372	54.41	0
7	385107	54.51	0
7	386384	54.61	0
7	387573	54.71	0
7	388308	54.81	0
7	389043	54.91	0
7	389783	55.01	0
7	390518	55.11	0
7	391253	55.21	0
7	391988	55.31	0
7	392723	55.41	0
7	393458	55.51	0
7	394193	55.61	0
7	394928	55.71	0
7	395663	55.81	0
7	396398	55.91	0
7	397138	56.01	0
7	397873	56.11	0
7	398608	56.21	0
7	399343	56.31	0
7	400078	56.41	0
7	400813	56.51	0
7	401548	56.61	0
7	402283	56.71	0
7	403018	56.81	0
7	403753	56.91	0
7	404493	57.01	0
7	405228	57.11	0
7	405963	57.21	0
7	406698	57.31	0
7	407433	57.41	0
7	408168	57.51	0
7	408903	57.61	0
7	409638	57.71	0
7	410373	57.81	0
7	411108	57.91	0
7	411848	58.01	0
7	412583	58.11	0
7	413318	58.21	0
7	414053	58.31	0
7	414788	58.41	0
7	415523	58.51	0
7	416258	58.61	0
7	416993	58.71	0
7	417728	58.81	0
7	418463	58.91	0
7	419203	59.01	0
7	419938	59.11	0
7	420673	59.21	0
7	421408	59.31	0
7	422143	59.41	0
7	422878	59.51	0
7	423613	59.61	0
7	424348	59.71	0
7	425083	59.81	0
7	425818	59.91	0
7	426558	60.01	0
7	427293	60.11	0
7	428028	60.21	0
7	428763	60.31	0
7	429498	60.41	0
7	430233	60.51	0
7	430968	60.61	0
7	431703	60.71	0
7	432438	60.81	0
7	433173	60.91	0
7	433913	61.01	0
7	434648	61.11	0
7	435383	61.21	0
7	436118	61.31	0
7	436853	61.41	0
7	437588	61.51	0
7	438323	61.61	0
7	439058	61.71	0
7	439793	61.81	0
7	440528	61.91	0
7	441268	62.01	0
7	442003	62.11	0
7	442738	62.21	0
7	443473	62.31	0
7	444208	62.41	0
7	444943	62.51	0
7	445678	62.61	0
7	446413	62.71	0
7	447148	62.81	0
7	447883	62.91	0
7	448623	63.01	0
7	449358	63.11	0
7	450093	63.21	0
7	450828	63.31	0
7	451563	63.41	0
7	452298	63.51	0
7	453033	63.61	0
7	453768	63.71	0
7	454503	63.81	0
7	455238	63.91	0
7	455978	64.01	0
7	456713	64.11	0
7	457448	64.21	0
7	458183	64.31	0
7	458918	64.41	0
7	459653	64.51	0
7	460388	64.61	0
7	461123	64.71	0
7	461858	64.81	0
7	462593	64.91	0
7	463333	65.01	0
7	464068	65.11	0
7	464803	65.21	0
7	465538	65.31	0
7	466273	65.41	0
7	467008	65.51	0
7	467743	65.61	0
7	468478	65.71	0
7	469213	65.81	0
7	469948	65.91	0
7	470688	66.01	0
7	471423	66.11	0
7	472158	66.21	0
7	472893	66.31	0
7	473628	66.41	0
7	474363	66.51	0
7	475098	66.61	0
7	475833	66.71	0
7	476568	66.81	0
7	477303	66.91	0
7	478043	67.01	0
7	478778	67.11	0
7	479513	67.21	0
7	480248	67.31	0
7	480983	67.41	0
7	481718	67.51	0
7	482453	67.61	0
7	483188	67.71	0
7	483923	67.81	0
7	484658	67.91	0
7	485398	68.01	0
7	486133	68.11	0
7	486868	68.21	0
7	487603	68.31	0
7	488338	68.41	0
7	489073	68.51	0
7	489808	68.61	0
7	490543	68.71	0
7	491278	68.81	0
7	492013	68.91	0
7	492753	69.01	0
7	493488	69.11	0
7	494223	69.21	0
7	494958	69.31	0
7	495693	69.41	0
7	496428	69.51	0
7	497163	69.61	0
7	497898	69.71	0
7	498633	69.81	0
7	499368	69.91	0
7	500108	70.01	0
7	500843	70.11	0
7	501578	70.21	0
7	502313	70.31	0
7	503048	70.41	0
7	503783	70.51	0
7	504518	70.61	0
7	505253	70.71	0
7	505988	70.81	0
7	506723	70.91	0
7	507463	71.01	0
7	508198	71.11	0
7	508933	71.21	0
7	509668	71.31	0
7	510403	71.41	0
7	511138	71.51	0
7	511873	71.61	0
7	512608	71.71	0
7	513343	71.81	0
7	514078	71.91	0
7	514818	72.01	0
7	515553	72.11	0
7	516288	72.21	0
7	517023	72.31	0
7	517758	72.41	0
7	518493	72.51	0
7	519228	72.61	0
7	519963	72.71	0
7	520698	72.81	0
7	521433	72.91	0
7	522173	73.01	0
7	522908	73.11	0
7	523643	73.21	0
7	524378	73.31	0
7	525113	73.41	0
7	525848	73.51	0
7	526583	73.61	0
7	527318	73.71	0
7	528053	73.81	0
7	528788	73.91	0
7	529528	74.01	0
7	530263	74.11	0
7	530998	74.21	0
7	531733	74.31	0
7	532468	74.41	0
7	533203	74.51	0
7	533938	74.61	0
7	534673	74.71	0
7	535408	74.81	0
7	536143	74.91	0
7	536883	75.01	0
7	537618	75.11	0
7	538353	75.21	0
7	539088	75.31	0
7	539823	75.41	0
7	540558	75.51	0
7	541293	75.61	0
7	542028	75.71	0
7	542763	75.81	0
7	543498	75.91	0
7	544238	76.01	0
7	544973	76.11	0
7	545708	76.21	0
7	546443	76.31	0
7	547178	76.41	0
7	547913	76.51	0
7	548648	76.61	0
7	549383	76.71	0
7	550118	76.81	0
7	550853	76.91	0
7	551593	77.01	0
7	552328	77.11	0
7	553063	77.21	0
7	553798	77.31	0
7	554533	77.41	0
7	555268	77.51	0
7	556003	77.61	0
7	556738	77.71	0
7	557473	77.81	0
7	558208	77.91	0
7	558948	78.01	0
7	559683	78.11	0
7	560418	78.21	0
7	561153	78.31	0
7	561888	78.41	0
7	562623	78.51	0
7	563358	78.61	0
7	564093	78.71	0
7	564828	78.81	0
7	565563	78.91	0
7	566303	79.01	0
7	567038	79.11	0
7	567773	79.21	0
7	568508	79.31	0
7	569243	79.41	0
7	569978	79.51	0
7	570713	79.61	0
7	571448	79.71	0
7	572183	79.81	0
7	572918	79.91	0
7	573658	80.01	0
7	574393	80.11	0
7	575128	80.21	0
7	575863	80.31	0
7	576598	80.41	0
7	577333	80.51	0
7	578068	80.61	0
7	578803	80.71	0
7	579538	80.81	0
7	580273	80.91	0
7	581013	81.01	0
7	581748	81.11	0
7	582483	81.21	0
7	583218	81.31	0
7	583953	81.41	0
7	584688	81.51	0
7	585423	81.61	0
7	586158	81.71	0
7	586893	81.81	0
7	587628	81.91	0
7	588368	82.01	0
7	589103	82.11	0
7	589838	82.21	0
7	590573	82.31	0
7	591308	82.41	0
7	592043	82.51	0
7	592778	82.61	0
7	593513	82.71	0
7	594248	82.81	0
7	594983	82.91	0
7	595723	83.01	0
7	596458	83.11	0
7	597193	83.21	0
7	597928	83.31	0
7	598663	83.41	0
7	599398	83.51	0
7	600133	83.61	0
7	600868	83.71	0
7	601603	83.81	0
7	602338	83.91	0
7	603078	84.01	0
7	603813	84.11	0
7	604548	84.21	0
7	605283	84.31	0
7	606018	84.41	0
7	606753	84.51	0
7	607488	84.61	0
7	608223	84.71	0
7	608958	84.81	0
7	609693	84.91	0
7	610433	85.01	0
7	611168	85.11	0
7	611903	85.21	0
7	612638	85.31	0
7	613373	85.41	0
7	614108	85.51	0
7	614843	85.61	0
7	615578	85.71	0
7	616313	85.81	0
7	617048	85.91	0
7	617788	86.01	0
7	618523	86.11	0
7	619258	86.21	0
7	619993	86.31	0
7	620728	86.41	0
7	621463	86.51	0
7	622198	86.61	0
7	622933	86.71	0
7	623668	86.81	0
7	624403	86.91	0
7	625143	87.01	0
7	625878	87.11	0
7	626613	87.21	0
7	627348	87.31	0
7	628083	87.41	0
7	628818	87.51	0
7	629553	87.61	0
7	630288	87.71	0
7	631023	87.81	0
7	631758	87.91	0
7	632498	88.01	0
7	633233	88.11	0
7	633968	88.21	0
7	634703	88.31	0
7	635438	88.41	0
7	636173	88.51	0
7	636908	88.61	0
7	637643	88.71	0
7	638378	88.81	0
7	639113	88.91	0
7	639853	89.01	0
7	640588	89.11	0
7	641323	89.21	0
7	642058	89.31	0
7	642793	89.41	0
7	643528	89.51	0
7	644263	89.61	0
7	644998	89.71	0
7	645733	89.81	0
7	646468	89.91	0
7	647208	90.01	0
7	647943	90.11	0
7	648678	90.21	0
7	649413	90.31	0
7	650148	90.41	0
7	650883	90.51	0
7	651618	90.61	0
7	652353	90.71	0
7	653088	90.81	0
7	653823	90.91	0
7	654563	91.01	0
7	655298	91.11	0
7	656033	91.21	0
7	656768	91.31	0
7	657503	91.41	0
7	658238	91.51	0
7	658973	91.61	0
7	659708	91.71	0
7	660443	91.81	0
7	661178	91.91	0
7	661918	92.01	0
7	662653	92.11	0
7	663388	92.21	0
7	664123	92.31	0
7	664858	92.41	0
7	665593	92.51	0
7	666328	92.61	0
7	667063	92.71	0
7	667798	92.81	0
7	668533	92.91	0
7	669273	93.01	0
7	670008	93.11	0
7	670743	93.21	0
7	671478	93.31	0
7	672213	93.41	0
7	672948	93.51	0
7	673683	93.61	0
7	674418	93.71	0
7	675153	93.81	0
7	675888	93.91	0
7	676628	94.01	0
7	677363	94.11	0
7	678098	94.21	0
7	678833	94.31	0
7	679568	94.41	0
7	680303	94.51	0
7	681038	94.61	0
7	681773	94.71	0
7	682508	94.81	0
7	683243	94.91	0
7	683983	95.01	0
7	684718	95.11	0
7	685453	95.21	0
7	686188	95.31	0
7	686923	95.41	0
7	687658	95.51	0
7	688393	95.61	0
7	689128	95.71	0
7	689863	95.81	0
7	690598	95.91	0
7	691338	96.01	0
7	692073	96.11	0
7	692808	96.21	0
7	693543	96.31	0
7	694278	96.41	0
7	695013	96.51	0
7	695748	96.61	0
7	696483	96.71	0
7	697218	96.81	0
7	697953	96.91	0
7	698693	97.01	0
7	699428	97.11	0
7	700163	97.21	0
7	700898	97.31	0
7	701633	97.41	0
7	702368	97.51	0
6	632	1.11	242.45
6	1192	1.21	242.45
6	1752	1.31	242.45
6	2312	1.41	242.45
6	2873	1.51	242.45
6	3433	1.61	242.45
6	3993	1.71	242.45
6	4554	1.81	242.45
6	5114	1.91	242.45
6	5680	2.01	242.45
6	6240	2.11	242.45
6	6800	2.21	242.45
6	7360	2.31	242.45
6	7920	2.41	242.45
6	8480	2.51	242.45
6	9040	2.61	242.45
6	9600	2.71	242.45
6	10160	2.81	242.45
6	10720	2.91	242.45
6	11284	3.01	242.45
6	11844	3.11	242.45
6	12404	3.21	242.45
6	12964	3.31	242.45
6	13524	3.41	242.45
6	14084	3.51	242.45
6	14644	3.61	242.45
6	15204	3.71	242.45
6	15764	3.81	242.45
6	16324	3.91	242.45
6	16888	4.01	242.45
6	17448	4.11	242.45
6	18008	4.21	242.45
6	18568	4.31	242.45
6	19128	4.41	242.45
6	19688	4.51	242.45
6	20248	4.61	242.45
6	20808	4.71	242.45
6	21368	4.81	242.45
6	21928	4.91	242.45
6	22492	5.01	242.45
6	23052	5.11	242.45
6	23612	5.21	242.45
6	24172	5.31	242.45
6	24732	5.41	242.45
6	25292	5.51	242.45
6	25852	5.61	242.45
6	26412	5.71	242.45
6	26972	5.81	242.45
6	27532	5.91	242.45
6	28097	6.01	242.45
6	28791	6.11	242.45
6	29526	6.21	242.45
6	30261	6.31	242.45
6	30997	6.41	242.45
6	31732	6.51	242.45
6	32467	6.61	242.45
6	33202	6.71	242.45
6	33937	6.81	242.45
6	34672	6.91	242.45
6	35412	7.01	242.45
6	36147	7.11	242.45
6	36882	7.21	242.45
6	37617	7.31	242.45
6	38352	7.41	242.45
6	39087	7.51	242.45
6	39822	7.61	242.45
6	40557	7.71	242.45
6	41292	7.81	242.45
6	42027	7.91	242.45
6	42767	8.01	242.45
6	43502	8.11	242.45
6	44237	8.21	242.45
6	44972	8.31	242.45
6	45707	8.41	242.45
6	46442	8.51	242.45
6	47177	8.61	242.45
6	47912	8.71	242.45
6	48647	8.81	242.45
6	49382	8.91	242.45
6	50122	9.01	242.45
6	50857	9.11	242.45
6	51592	9.21	242.45
6	52327	9.31	242.45
6	53062	9.41	242.45
6	53797	9.51	242.45
6	54532	9.61	242.45
6	55267	9.71	242.45
6	56002	9.81	242.45
6	56737	9.91	242.45
6	57477	10.01	242.45
6	58212	10.11	242.45
6	58947	10.21	242.45
6	59682	10.31	242.45
6	60417	10.41	242.45
6	61152	10.51	242.45
6	61887	10.61	242.45
6	62622	10.71	242.45
6	63357	10.81	242.45
6	64092	10.91	242.45
6	64832	11.01	242.45
6	65567	11.11	242.45
6	66302	11.21	242.45
6	67037	11.31	242.45
6	67772	11.41	242.45
6	68507	11.51	242.45
6	69242	11.61	242.45
6	69977	11.71	242.45
6	70712	11.81	242.45
6	71447	11.91	242.45
6	72187	12.01	242.45
6	72922	12.11	242.45
6	73657	12.21	242.45
6	74392	12.31	242.45
6	75127	12.41	242.45
6	75862	12.51	242.45
6	76597	12.61	242.45
6	77332	12.71	242.45
6	78067	12.81	242.45
6	78802	12.91	242.45
6	79542	13.01	242.45
6	80277	13.11	242.45
6	81012	13.21	242.45
6	81747	13.31	242.45
6	82482	13.41	242.45
6	83217	13.51	242.45
6	83952	13.61	242.45
6	84687	13.71	242.45
6	85422	13.81	242.45
6	86157	13.91	242.45
6	86897	14.01	242.45
6	87632	14.11	242.45
6	88367	14.21	242.45
6	89102	14.31	242.45
6	89837	14.41	242.45
6	90572	14.51	242.45
6	91307	14.61	242.45
6	92042	14.71	242.45
6	92777	14.81	242.45
6	93512	14.91	242.45
6	94252	15.01	242.45
6	94987	15.11	242.45
6	95722	15.21	242.45
6	96457	15.31	242.45
6	97192	15.41	242.45
6	97927	15.51	242.45
6	98662	15.61	242.45
6	99397	15.71	242.45
6	100132	15.81	242.45
6	100867	15.91	242.45
6	101608	16.01	242.45
6	102677	16.11	242.45
6	103412	16.21	242.45
6	104147	16.31	242.45
6	104882	16.41	242.45
6	105617	16.51	242.45
6	106352	16.61	242.45
6	107087	16.71	242.45
6	107822	16.81	242.45
6	108557	16.91	242.45
6	109297	17.01	242.45
6	110032	17.11	242.45
6	110767	17.21	242.45
6	111502	17.31	242.45
6	112237	17.41	242.45
6	112972	17.51	242.45
6	113707	17.61	242.45
6	114442	17.71	242.45
6	115177	17.81	242.45
6	115912	17.91	242.45
6	116652	18.01	242.45
6	117387	18.11	242.45
6	118122	18.21	242.45
6	118857	18.31	242.45
6	119592	18.41	242.45
6	120327	18.51	242.45
6	121062	18.61	242.45
6	121797	18.71	242.45
6	122532	18.81	242.45
6	123267	18.91	242.45
6	124007	19.01	242.45
6	124742	19.11	242.45
6	125477	19.21	242.45
6	126212	19.31	242.45
6	126947	19.41	242.45
6	127682	19.51	242.45
6	128417	19.61	242.45
6	129152	19.71	242.45
6	129887	19.81	242.45
6	130622	19.91	242.45
6	131362	20.01	242.45
6	132097	20.11	242.45
6	132832	20.21	242.45
6	133567	20.31	242.45
6	134302	20.41	242.45
6	135037	20.51	242.45
6	135772	20.61	242.45
6	136507	20.71	242.45
6	137242	20.81	242.45
6	137977	20.91	242.45
6	138717	21.01	242.45
6	139452	21.11	242.45
6	140187	21.21	242.45
6	140922	21.31	242.45
6	141657	21.41	242.45
6	142392	21.51	242.45
6	143127	21.61	242.45
6	143862	21.71	242.45
6	144597	21.81	242.45
6	145332	21.91	242.45
6	146072	22.01	242.45
6	146807	22.11	242.45
6	147542	22.21	242.45
6	148277	22.31	242.45
6	149012	22.41	242.45
6	149747	22.51	242.45
6	150482	22.61	242.45
6	151217	22.71	242.45
6	151952	22.81	242.45
6	152687	22.91	242.45
6	153427	23.01	242.45
6	154162	23.11	242.45
6	154897	23.21	242.45
6	155632	23.31	242.45
6	156367	23.41	242.45
6	157102	23.51	242.45
6	157837	23.61	242.45
6	158572	23.71	242.45
6	159307	23.81	242.45
6	160042	23.91	242.45
6	160782	24.01	242.45
6	161517	24.11	242.45
6	162252	24.21	242.45
6	162987	24.31	242.45
6	163722	24.41	242.45
6	164457	24.51	242.45
6	165192	24.61	242.45
6	165927	24.71	242.45
6	166662	24.81	242.45
6	167397	24.91	242.45
6	168137	25.01	242.45
6	168872	25.11	242.45
6	169607	25.21	242.45
6	170342	25.31	242.45
6	171077	25.41	242.45
6	171812	25.51	242.45
6	172547	25.61	242.45
6	173282	25.71	242.45
6	174017	25.81	242.45
6	174752	25.91	242.45
6	175492	26.01	242.45
6	176227	26.11	242.45
6	176962	26.21	242.45
6	177697	26.31	242.45
6	178432	26.41	242.45
6	179167	26.51	242.45
6	179902	26.61	242.45
6	180637	26.71	242.45
6	181372	26.81	242.45
6	182107	26.91	242.45
6	182847	27.01	242.45
6	183582	27.11	242.45
6	184317	27.21	242.45
6	185052	27.31	242.45
6	185787	27.41	242.45
6	186522	27.51	242.45
6	187257	27.61	242.45
6	187992	27.71	242.45
6	188727	27.81	242.45
6	189462	27.91	242.45
6	190202	28.01	242.45
6	190937	28.11	242.45
6	191672	28.21	242.45
6	192407	28.31	242.45
6	193142	28.41	242.45
6	193877	28.51	242.45
6	194612	28.61	242.45
6	195347	28.71	242.45
6	196082	28.81	242.45
6	196817	28.91	242.45
6	197557	29.01	242.45
6	198292	29.11	242.45
6	199027	29.21	242.45
6	199762	29.31	242.45
6	200497	29.41	242.45
6	201232	29.51	242.45
6	201967	29.61	242.45
6	202702	29.71	242.45
6	203437	29.81	242.45
6	204172	29.91	242.45
6	204912	30.01	242.45
6	205647	30.11	242.45
6	206382	30.21	242.45
6	207117	30.31	242.45
6	207852	30.41	242.45
6	208587	30.51	242.45
6	209322	30.61	242.45
6	210057	30.71	242.45
6	210792	30.81	242.45
6	211527	30.91	242.45
6	212267	31.01	242.45
6	213002	31.11	242.45
6	213737	31.21	242.45
6	214472	31.31	242.45
6	215207	31.41	242.45
6	215942	31.51	242.45
6	216677	31.61	242.45
6	217412	31.71	242.45
6	218147	31.81	242.45
6	218882	31.91	242.45
6	219622	32.01	242.45
6	220357	32.11	242.45
6	221092	32.21	242.45
6	221827	32.31	242.45
6	222562	32.41	242.45
6	223297	32.51	242.45
6	224032	32.61	242.45
6	224767	32.71	242.45
6	225502	32.81	242.45
6	226237	32.91	242.45
6	226977	33.01	242.45
6	227712	33.11	242.45
6	228447	33.21	242.45
6	229182	33.31	242.45
6	229917	33.41	242.45
6	230652	33.51	242.45
6	231387	33.61	242.45
6	232122	33.71	242.45
6	232857	33.81	242.45
6	233592	33.91	242.45
6	234332	34.01	242.45
6	235067	34.11	242.45
6	235802	34.21	242.45
6	236537	34.31	242.45
6	237272	34.41	242.45
6	238007	34.51	242.45
6	238742	34.61	242.45
6	239477	34.71	242.45
6	240212	34.81	242.45
6	240947	34.91	242.45
6	241687	35.01	242.45
6	242422	35.11	242.45
6	243157	35.21	242.45
6	243892	35.31	242.45
6	244627	35.41	242.45
6	245362	35.51	242.45
6	246097	35.61	242.45
6	246832	35.71	242.45
6	247567	35.81	242.45
6	248302	35.91	242.45
6	249042	36.01	242.45
6	249777	36.11	242.45
6	250512	36.21	242.45
6	251247	36.31	242.45
6	251982	36.41	242.45
6	252717	36.51	242.45
6	253452	36.61	242.45
6	254187	36.71	242.45
6	254922	36.81	242.45
6	255657	36.91	242.45
6	256397	37.01	242.45
6	257132	37.11	242.45
6	257867	37.21	242.45
6	258602	37.31	242.45
6	259337	37.41	242.45
6	260072	37.51	242.45
6	260807	37.61	242.45
6	261542	37.71	242.45
6	262277	37.81	242.45
6	263012	37.91	242.45
6	263752	38.01	242.45
6	264487	38.11	242.45
6	265222	38.21	242.45
6	265957	38.31	242.45
6	266692	38.41	242.45
6	267427	38.51	242.45
6	268162	38.61	242.45
6	268897	38.71	242.45
6	269632	38.81	242.45
6	270367	38.91	242.45
6	271107	39.01	242.45
6	271842	39.11	242.45
6	272577	39.21	242.45
6	273312	39.31	242.45
6	274047	39.41	242.45
6	274782	39.51	242.45
6	275517	39.61	242.45
6	276252	39.71	242.45
6	276987	39.81	242.45
6	277722	39.91	242.45
6	278462	40.01	242.45
6	279197	40.11	242.45
6	279932	40.21	242.45
6	280667	40.31	242.45
6	281402	40.41	242.45
6	282137	40.51	242.45
6	282872	40.61	242.45
6	283607	40.71	242.45
6	284342	40.81	242.45
6	285077	40.91	242.45
6	285817	41.01	242.45
6	286552	41.11	242.45
6	287287	41.21	242.45
6	288022	41.31	242.45
6	288757	41.41	242.45
6	289492	41.51	242.45
6	290227	41.61	242.45
6	290962	41.71	242.45
6	291697	41.81	242.45
6	292432	41.91	242.45
6	293172	42.01	242.45
6	293907	42.11	242.45
6	294642	42.21	242.45
6	295377	42.31	242.45
6	296112	42.41	242.45
6	296847	42.51	242.45
6	297582	42.61	242.45
6	298317	42.71	242.45
6	299052	42.81	242.45
6	299787	42.91	242.45
6	300527	43.01	242.45
6	301262	43.11	242.45
6	301997	43.21	242.45
6	302732	43.31	242.45
6	303467	43.41	242.45
6	304202	43.51	242.45
6	304937	43.61	242.45
6	305672	43.71	242.45
6	306407	43.81	242.45
6	307142	43.91	242.45
6	307882	44.01	242.45
6	308617	44.11	242.45
6	309352	44.21	242.45
6	310087	44.31	242.45
6	310822	44.41	242.45
6	311557	44.51	242.45
6	312292	44.61	242.45
6	313027	44.71	242.45
6	313762	44.81	242.45
6	314497	44.91	242.45
6	315237	45.01	242.45
6	315972	45.11	242.45
6	316707	45.21	242.45
6	317442	45.31	242.45
6	318177	45.41	242.45
6	318912	45.51	242.45
6	319647	45.61	242.45
6	320382	45.71	242.45
6	321117	45.81	242.45
6	321852	45.91	242.45
6	322592	46.01	242.45
6	323327	46.11	242.45
6	324062	46.21	242.45
6	324797	46.31	242.45
6	325532	46.41	242.45
6	326267	46.51	242.45
6	327002	46.61	242.45
6	327737	46.71	242.45
6	328472	46.81	242.45
6	329207	46.91	242.45
6	329947	47.01	242.45
6	330682	47.11	242.45
6	331417	47.21	242.45
6	332152	47.31	242.45
6	332887	47.41	242.45
6	333622	47.51	242.45
6	334357	47.61	242.45
6	335092	47.71	242.45
6	335827	47.81	242.45
6	336562	47.91	242.45
6	337302	48.01	242.45
6	338037	48.11	242.45
6	338772	48.21	242.45
6	339507	48.31	242.45
6	340242	48.41	242.45
6	340977	48.51	242.45
6	341712	48.61	242.45
6	342447	48.71	242.45
6	343182	48.81	242.45
6	343917	48.91	242.45
6	344657	49.01	242.45
6	345392	49.11	242.45
6	346127	49.21	242.45
6	346862	49.31	242.45
6	347597	49.41	242.45
6	348332	49.51	242.45
6	349067	49.61	242.45
6	349802	49.71	242.45
6	350537	49.81	242.45
6	351272	49.91	242.45
6	352012	50.01	242.45
6	352747	50.11	242.45
6	353482	50.21	242.45
6	354217	50.31	242.45
6	354952	50.41	242.45
6	355687	50.51	242.45
6	356422	50.61	242.45
6	357157	50.71	242.45
6	357892	50.81	242.45
6	358627	50.91	242.45
6	359367	51.01	242.45
6	360102	51.11	242.45
6	360837	51.21	242.45
6	361572	51.31	242.45
6	362307	51.41	242.45
6	363042	51.51	242.45
6	363777	51.61	242.45
6	364512	51.71	242.45
6	365247	51.81	242.45
6	365982	51.91	242.45
6	366722	52.01	242.45
6	367457	52.11	242.45
6	368192	52.21	242.45
6	368927	52.31	242.45
6	369662	52.41	242.45
6	370397	52.51	242.45
6	371132	52.61	242.45
6	371867	52.71	242.45
6	372602	52.81	242.45
6	373337	52.91	242.45
6	374077	53.01	242.45
6	374812	53.11	242.45
6	375547	53.21	242.45
6	376282	53.31	242.45
6	377017	53.41	242.45
6	377752	53.51	242.45
6	378487	53.61	242.45
6	379222	53.71	242.45
6	379957	53.81	242.45
6	380692	53.91	242.45
6	381432	54.01	242.45
6	382167	54.11	242.45
6	382902	54.21	242.45
6	383637	54.31	242.45
6	384372	54.41	242.45
6	385107	54.51	242.45
6	386384	54.61	242.45
6	387573	54.71	242.45
6	388308	54.81	242.45
6	389043	54.91	242.45
6	389783	55.01	242.45
6	390518	55.11	242.45
6	391253	55.21	242.45
6	391988	55.31	242.45
6	392723	55.41	242.45
6	393458	55.51	242.45
6	394193	55.61	242.45
6	394928	55.71	242.45
6	395663	55.81	242.45
6	396398	55.91	242.45
6	397138	56.01	242.45
6	397873	56.11	242.45
6	398608	56.21	242.45
6	399343	56.31	242.45
6	400078	56.41	242.45
6	400813	56.51	242.45
6	401548	56.61	242.45
6	402283	56.71	242.45
6	403018	56.81	242.45
6	403753	56.91	242.45
6	404493	57.01	242.45
6	405228	57.11	242.45
6	405963	57.21	242.45
6	406698	57.31	242.45
6	407433	57.41	242.45
6	408168	57.51	242.45
6	408903	57.61	242.45
6	409638	57.71	242.45
6	410373	57.81	242.45
6	411108	57.91	242.45
6	411848	58.01	242.45
6	412583	58.11	242.45
6	413318	58.21	242.45
6	414053	58.31	242.45
6	414788	58.41	242.45
6	415523	58.51	242.45
6	416258	58.61	242.45
6	416993	58.71	242.45
6	417728	58.81	242.45
6	418463	58.91	242.45
6	419203	59.01	242.45
6	419938	59.11	242.45
6	420673	59.21	242.45
6	421408	59.31	242.45
6	422143	59.41	242.45
6	422878	59.51	242.45
6	423613	59.61	242.45
6	424348	59.71	242.45
6	425083	59.81	242.45
6	425818	59.91	242.45
6	426558	60.01	242.45
6	427293	60.11	242.45
6	428028	60.21	242.45
6	428763	60.31	242.45
6	429498	60.41	242.45
6	430233	60.51	242.45
6	430968	60.61	242.45
6	431703	60.71	242.45
6	432438	60.81	242.45
6	433173	60.91	242.45
6	433913	61.01	242.45
6	434648	61.11	242.45
6	435383	61.21	242.45
6	436118	61.31	242.45
6	436853	61.41	242.45
6	437588	61.51	242.45
6	438323	61.61	242.45
6	439058	61.71	242.45
6	439793	61.81	242.45
6	440528	61.91	242.45
6	441268	62.01	242.45
6	442003	62.11	242.45
6	442738	62.21	242.45
6	443473	62.31	242.45
6	444208	62.41	242.45
6	444943	62.51	242.45
6	445678	62.61	242.45
6	446413	62.71	242.45
6	447148	62.81	242.45
6	447883	62.91	242.45
6	448623	63.01	242.45
6	449358	63.11	242.45
6	450093	63.21	242.45
6	450828	63.31	242.45
6	451563	63.41	242.45
6	452298	63.51	242.45
6	453033	63.61	242.45
6	453768	63.71	242.45
6	454503	63.81	242.45
6	455238	63.91	242.45
6	455978	64.01	242.45
6	456713	64.11	242.45
6	457448	64.21	242.45
6	458183	64.31	242.45
6	458918	64.41	242.45
6	459653	64.51	242.45
6	460388	64.61	242.45
6	461123	64.71	242.45
6	461858	64.81	242.45
6	462593	64.91	242.45
6	463333	65.01	242.45
6	464068	65.11	242.45
6	464803	65.21	242.45
6	465538	65.31	242.45
6	466273	65.41	242.45
6	467008	65.51	242.45
6	467743	65.61	242.45
6	468478	65.71	242.45
6	469213	65.81	242.45
6	469948	65.91	242.45
6	470688	66.01	242.45
6	471423	66.11	242.45
6	472158	66.21	242.45
6	472893	66.31	242.45
6	473628	66.41	242.45
6	474363	66.51	242.45
6	475098	66.61	242.45
6	475833	66.71	242.45
6	476568	66.81	242.45
6	477303	66.91	242.45
6	478043	67.01	242.45
6	478778	67.11	242.45
6	479513	67.21	242.45
6	480248	67.31	242.45
6	480983	67.41	242.45
6	481718	67.51	242.45
6	482453	67.61	242.45
6	483188	67.71	242.45
6	483923	67.81	242.45
6	484658	67.91	242.45
6	485398	68.01	242.45
6	486133	68.11	242.45
6	486868	68.21	242.45
6	487603	68.31	242.45
6	488338	68.41	242.45
6	489073	68.51	242.45
6	489808	68.61	242.45
6	490543	68.71	242.45
6	491278	68.81	242.45
6	492013	68.91	242.45
6	492753	69.01	242.45
6	493488	69.11	242.45
6	494223	69.21	242.45
6	494958	69.31	242.45
6	495693	69.41	242.45
6	496428	69.51	242.45
6	497163	69.61	242.45
6	497898	69.71	242.45
6	498633	69.81	242.45
6	499368	69.91	242.45
6	500108	70.01	242.45
6	500843	70.11	242.45
6	501578	70.21	242.45
6	502313	70.31	242.45
6	503048	70.41	242.45
6	503783	70.51	242.45
6	504518	70.61	242.45
6	505253	70.71	242.45
6	505988	70.81	242.45
6	506723	70.91	242.45
6	507463	71.01	242.45
6	508198	71.11	242.45
6	508933	71.21	242.45
6	509668	71.31	242.45
6	510403	71.41	242.45
6	511138	71.51	242.45
6	511873	71.61	242.45
6	512608	71.71	242.45
6	513343	71.81	242.45
6	514078	71.91	242.45
6	514818	72.01	242.45
6	515553	72.11	242.45
6	516288	72.21	242.45
6	517023	72.31	242.45
6	517758	72.41	242.45
6	518493	72.51	242.45
6	519228	72.61	242.45
6	519963	72.71	242.45
6	520698	72.81	242.45
6	521433	72.91	242.45
6	522173	73.01	242.45
6	522908	73.11	242.45
6	523643	73.21	242.45
6	524378	73.31	242.45
6	525113	73.41	242.45
6	525848	73.51	242.45
6	526583	73.61	242.45
6	527318	73.71	242.45
6	528053	73.81	242.45
6	528788	73.91	242.45
6	529528	74.01	242.45
6	530263	74.11	242.45
6	530998	74.21	242.45
6	531733	74.31	242.45
6	532468	74.41	242.45
6	533203	74.51	242.45
6	533938	74.61	242.45
6	534673	74.71	242.45
6	535408	74.81	242.45
6	536143	74.91	242.45
6	536883	75.01	242.45
6	537618	75.11	242.45
6	538353	75.21	242.45
6	539088	75.31	242.45
6	539823	75.41	242.45
6	540558	75.51	242.45
6	541293	75.61	242.45
6	542028	75.71	242.45
6	542763	75.81	242.45
6	543498	75.91	242.45
6	544238	76.01	242.45
6	544973	76.11	242.45
6	545708	76.21	242.45
6	546443	76.31	242.45
6	547178	76.41	242.45
6	547913	76.51	242.45
6	548648	76.61	242.45
6	549383	76.71	242.45
6	550118	76.81	242.45
6	550853	76.91	242.45
6	551593	77.01	242.45
6	552328	77.11	242.45
6	553063	77.21	242.45
6	553798	77.31	242.45
6	554533	77.41	242.45
6	555268	77.51	242.45
6	556003	77.61	242.45
6	556738	77.71	242.45
6	557473	77.81	242.45
6	558208	77.91	242.45
6	558948	78.01	242.45
6	559683	78.11	242.45
6	560418	78.21	242.45
6	561153	78.31	242.45
6	561888	78.41	242.45
6	562623	78.51	242.45
6	563358	78.61	242.45
6	564093	78.71	242.45
6	564828	78.81	242.45
6	565563	78.91	242.45
6	566303	79.01	242.45
6	567038	79.11	242.45
6	567773	79.21	242.45
6	568508	79.31	242.45
6	569243	79.41	242.45
6	569978	79.51	242.45
6	570713	79.61	242.45
6	571448	79.71	242.45
6	572183	79.81	242.45
6	572918	79.91	242.45
6	573658	80.01	242.45
6	574393	80.11	242.45
6	575128	80.21	242.45
6	575863	80.31	242.45
6	576598	80.41	242.45
6	577333	80.51	242.45
6	578068	80.61	242.45
6	578803	80.71	242.45
6	579538	80.81	242.45
6	580273	80.91	242.45
6	581013	81.01	242.45
6	581748	81.11	242.45
6	582483	81.21	242.45
6	583218	81.31	242.45
6	583953	81.41	242.45
6	584688	81.51	242.45
6	585423	81.61	242.45
6	586158	81.71	242.45
6	586893	81.81	242.45
6	587628	81.91	242.45
6	588368	82.01	242.45
6	589103	82.11	242.45
6	589838	82.21	242.45
6	590573	82.31	242.45
6	591308	82.41	242.45
6	592043	82.51	242.45
6	592778	82.61	242.45
6	593513	82.71	242.45
6	594248	82.81	242.45
6	594983	82.91	242.45
6	595723	83.01	242.45
6	596458	83.11	242.45
6	597193	83.21	242.45
6	597928	83.31	242.45
6	598663	83.41	242.45
6	599398	83.51	242.45
6	600133	83.61	242.45
6	600868	83.71	242.45
6	601603	83.81	242.45
6	602338	83.91	242.45
6	603078	84.01	242.45
6	603813	84.11	242.45
6	604548	84.21	242.45
6	605283	84.31	242.45
6	606018	84.41	242.45
6	606753	84.51	242.45
6	607488	84.61	242.45
6	608223	84.71	242.45
6	608958	84.81	242.45
6	609693	84.91	242.45
6	610433	85.01	242.45
6	611168	85.11	242.45
6	611903	85.21	242.45
6	612638	85.31	242.45
6	613373	85.41	242.45
6	614108	85.51	242.45
6	614843	85.61	242.45
6	615578	85.71	242.45
6	616313	85.81	242.45
6	617048	85.91	242.45
6	617788	86.01	242.45
6	618523	86.11	242.45
6	619258	86.21	242.45
6	619993	86.31	242.45
6	620728	86.41	242.45
6	621463	86.51	242.45
6	622198	86.61	242.45
6	622933	86.71	242.45
6	623668	86.81	242.45
6	624403	86.91	242.45
6	625143	87.01	242.45
6	625878	87.11	242.45
6	626613	87.21	242.45
6	627348	87.31	242.45
6	628083	87.41	242.45
6	628818	87.51	242.45
6	629553	87.61	242.45
6	630288	87.71	242.45
6	631023	87.81	242.45
6	631758	87.91	242.45
6	632498	88.01	242.45
6	633233	88.11	242.45
6	633968	88.21	242.45
6	634703	88.31	242.45
6	635438	88.41	242.45
6	636173	88.51	242.45
6	636908	88.61	242.45
6	637643	88.71	242.45
6	638378	88.81	242.45
6	639113	88.91	242.45
6	639853	89.01	242.45
6	640588	89.11	242.45
6	641323	89.21	242.45
6	642058	89.31	242.45
6	642793	89.41	242.45
6	643528	89.51	242.45
6	644263	89.61	242.45
6	644998	89.71	242.45
6	645733	89.81	242.45
6	646468	89.91	242.45
6	647208	90.01	242.45
6	647943	90.11	242.45
6	648678	90.21	242.45
6	649413	90.31	242.45
6	650148	90.41	242.45
6	650883	90.51	242.45
6	651618	90.61	242.45
6	652353	90.71	242.45
6	653088	90.81	242.45
6	653823	90.91	242.45
6	654563	91.01	242.45
6	655298	91.11	242.45
6	656033	91.21	242.45
6	656768	91.31	242.45
6	657503	91.41	242.45
6	658238	91.51	242.45
6	658973	91.61	242.45
6	659708	91.71	242.45
6	660443	91.81	242.45
6	661178	91.91	242.45
6	661918	92.01	242.45
6	662653	92.11	242.45
6	663388	92.21	242.45
6	664123	92.31	242.45
6	664858	92.41	242.45
6	665593	92.51	242.45
6	666328	92.61	242.45
6	667063	92.71	242.45
6	667798	92.81	242.45
6	668533	92.91	242.45
6	669273	93.01	242.45
6	670008	93.11	242.45
6	670743	93.21	242.45
6	671478	93.31	242.45
6	672213	93.41	242.45
6	672948	93.51	242.45
6	673683	93.61	242.45
6	674418	93.71	242.45
6	675153	93.81	242.45
6	675888	93.91	242.45
6	676628	94.01	242.45
6	677363	94.11	242.45
6	678098	94.21	242.45
6	678833	94.31	242.45
6	679568	94.41	242.45
6	680303	94.51	242.45
6	681038	94.61	242.45
6	681773	94.71	242.45
6	682508	94.81	242.45
6	683243	94.91	242.45
6	683983	95.01	242.45
6	684718	95.11	242.45
6	685453	95.21	242.45
6	686188	95.31	242.45
6	686923	95.41	242.45
6	687658	95.51	242.45
6	688393	95.61	242.45
6	689128	95.71	242.45
6	689863	95.81	242.45
6	690598	95.91	242.45
6	691338	96.01	242.45
6	692073	96.11	242.45
6	692808	96.21	242.45
6	693543	96.31	242.45
6	694278	96.41	242.45
6	695013	96.51	242.45
6	695748	96.61	242.45
6	696483	96.71	242.45
6	697218	96.81	242.45
6	697953	96.91	242.45
6	698693	97.01	242.45
6	699428	97.11	242.45
6	700163	97.21	242.45
6	700898	97.31	242.45
6	701633	97.41	242.45
6	702368	97.51	242.45
5	632	1.11	37.9402
5	1192	1.21	40.7182
5	1752	1.31	43.4962
5	2312	1.41	46.2742
5	2873	1.51	49.0521
5	3433	1.61	51.8301
5	3993	1.71	54.608
5	4554	1.81	57.386
5	5114	1.91	60.1639
5	5680	2.01	62.9418
5	6240	2.11	65.7197
5	6800	2.21	68.4975
5	7360	2.31	71.2754
5	7920	2.41	74.0532
5	8480	2.51	76.8311
5	9040	2.61	79.6089
5	9600	2.71	82.3867
5	10160	2.81	85.1645
5	10720	2.91	87.9423
5	11284	3.01	90.7201
5	11844	3.11	93.4979
5	12404	3.21	96.2757
5	12964	3.31	99.0535
5	13524	3.41	101.831
5	14084	3.51	104.609
5	14644	3.61	107.387
5	15204	3.71	110.165
5	15764	3.81	112.942
5	16324	3.91	115.72
5	16888	4.01	118.498
5	17448	4.11	121.276
5	18008	4.21	124.053
5	18568	4.31	126.831
5	19128	4.41	129.609
5	19688	4.51	132.387
5	20248	4.61	135.165
5	20808	4.71	137.942
5	21368	4.81	140.72
5	21928	4.91	143.498
5	22492	5.01	146.276
5	23052	5.11	149.053
5	23612	5.21	151.831
5	24172	5.31	154.609
5	24732	5.41	157.387
5	25292	5.51	160.165
5	25852	5.61	162.942
5	26412	5.71	165.72
5	26972	5.81	168.498
5	27532	5.91	171.276
5	28097	6.01	174.053
5	28791	6.11	176.831
5	29526	6.21	179.609
5	30261	6.31	182.387
5	30997	6.41	185.165
5	31732	6.51	187.942
5	32467	6.61	190.72
5	33202	6.71	193.498
5	33937	6.81	196.276
5	34672	6.91	199.053
5	35412	7.01	201.831
5	36147	7.11	204.609
5	36882	7.21	207.387
5	37617	7.31	210.165
5	38352	7.41	212.942
5	39087	7.51	215.72
5	39822	7.61	218.498
5	40557	7.71	221.276
5	41292	7.81	224.053
5	42027	7.91	226.831
5	42767	8.01	229.609
5	43502	8.11	232.387
5	44237	8.21	235.165
5	44972	8.31	237.942
5	45707	8.41	240.72
5	46442	8.51	243.498
5	47177	8.61	246.276
5	47912	8.71	249.053
5	48647	8.81	251.831
5	49382	8.91	254.609
5	50122	9.01	257.387
5	50857	9.11	260.165
5	51592	9.21	262.942
5	52327	9.31	265.72
5	53062	9.41	268.498
5	53797	9.51	271.276
5	54532	9.61	274.053
5	55267	9.71	276.831
5	56002	9.81	279.609
5	56737	9.91	282.387
5	57477	10.01	285.165
5	58212	10.11	287.942
5	58947	10.21	290.72
5	59682	10.31	293.498
5	60417	10.41	296.276
5	61152	10.51	299.054
5	61887	10.61	301.831
5	62622	10.71	304.609
5	63357	10.81	307.387
5	64092	10.91	310.165
5	64832	11.01	312.942
5	65567	11.11	315.72
5	66302	11.21	318.498
5	67037	11.31	321.276
5	67772	11.41	324.054
5	68507	11.51	326.831
5	69242	11.61	329.609
5	69977	11.71	332.387
5	70712	11.81	335.165
5	71447	11.91	337.942
5	72187	12.01	340.72
5	72922	12.11	343.498
5	73657	12.21	346.276
5	74392	12.31	349.054
5	75127	12.41	351.831
5	75862	12.51	354.609
5	76597	12.61	357.387
5	77332	12.71	360.165
5	78067	12.81	362.942
5	78802	12.91	365.72
5	79542	13.01	368.498
5	80277	13.11	371.276
5	81012	13.21	374.054
5	81747	13.31	376.831
5	82482	13.41	379.609
5	83217	13.51	382.387
5	83952	13.61	385.165
5	84687	13.71	387.942
5	85422	13.81	390.72
5	86157	13.91	393.498
5	86897	14.01	396.276
5	87632	14.11	399.054
5	88367	14.21	401.831
5	89102	14.31	404.609
5	89837	14.41	407.387
5	90572	14.51	410.165
5	91307	14.61	412.942
5	92042	14.71	415.72
5	92777	14.81	418.498
5	93512	14.91	421.276
5	94252	15.01	424.054
5	94987	15.11	426.831
5	95722	15.21	429.609
5	96457	15.31	432.387
5	97192	15.41	435.165
5	97927	15.51	437.943
5	98662	15.61	440.72
5	99397	15.71	443.498
5	100132	15.81	446.276
5	100867	15.91	449.054
5	101608	16.01	451.831
5	102677	16.11	454.609
5	103412	16.21	457.387
5	104147	16.31	460.165
5	104882	16.41	462.943
5	105617	16.51	465.72
5	106352	16.61	468.498
5	107087	16.71	471.276
5	107822	16.81	474.054
5	108557	16.91	476.831
5	109297	17.01	479.609
5	110032	17.11	482.387
5	110767	17.21	485.165
5	111502	17.31	487.943
5	112237	17.41	490.72
5	112972	17.51	493.498
5	113707	17.61	496.276
5	114442	17.71	499.054
5	115177	17.81	501.831
5	115912	17.91	504.609
5	116652	18.01	507.387
5	117387	18.11	510.165
5	118122	18.21	512.943
5	118857	18.31	515.72
5	119592	18.41	518.498
5	120327	18.51	521.276
5	121062	18.61	524.054
5	121797	18.71	526.831
5	122532	18.81	529.609
5	123267	18.91	532.387
5	124007	19.01	535.165
5	124742	19.11	537.943
5	125477	19.21	540.72
5	126212	19.31	543.498
5	126947	19.41	546.276
5	127682	19.51	549.054
5	128417	19.61	551.831
5	129152	19.71	554.609
5	129887	19.81	557.387
5	130622	19.91	560.165
5	131362	20.01	562.943
5	132097	20.11	565.72
5	132832	20.21	568.498
5	133567	20.31	571.276
5	134302	20.41	574.054
5	135037	20.51	576.832
5	135772	20.61	579.609
5	136507	20.71	582.387
5	137242	20.81	585.165
5	137977	20.91	587.943
5	138717	21.01	590.72
5	139452	21.11	593.498
5	140187	21.21	596.276
5	140922	21.31	599.054
5	141657	21.41	601.832
5	142392	21.51	604.609
5	143127	21.61	607.387
5	143862	21.71	610.165
5	144597	21.81	612.943
5	145332	21.91	615.72
5	146072	22.01	618.498
5	146807	22.11	621.276
5	147542	22.21	624.054
5	148277	22.31	626.832
5	149012	22.41	629.609
5	149747	22.51	632.387
5	150482	22.61	635.165
5	151217	22.71	637.943
5	151952	22.81	640.72
5	152687	22.91	643.498
5	153427	23.01	646.276
5	154162	23.11	649.054
5	154897	23.21	651.832
5	155632	23.31	654.609
5	156367	23.41	657.387
5	157102	23.51	660.165
5	157837	23.61	662.943
5	158572	23.71	665.72
5	159307	23.81	668.498
5	160042	23.91	671.276
5	160782	24.01	674.054
5	161517	24.11	676.832
5	162252	24.21	679.609
5	162987	24.31	682.387
5	163722	24.41	685.165
5	164457	24.51	687.943
5	165192	24.61	690.72
5	165927	24.71	693.498
5	166662	24.81	696.276
5	167397	24.91	699.054
5	168137	25.01	701.832
5	168872	25.11	704.609
5	169607	25.21	707.387
5	170342	25.31	710.165
5	171077	25.41	712.943
5	171812	25.51	715.721
5	172547	25.61	718.498
5	173282	25.71	721.276
5	174017	25.81	724.054
5	174752	25.91	726.832
5	175492	26.01	729.609
5	176227	26.11	732.387
5	176962	26.21	735.165
5	177697	26.31	737.943
5	178432	26.41	740.721
5	179167	26.51	743.498
5	179902	26.61	746.276
5	180637	26.71	749.054
5	181372	26.81	751.832
5	182107	26.91	754.609
5	182847	27.01	757.387
5	183582	27.11	760.165
5	184317	27.21	762.943
5	185052	27.31	765.721
5	185787	27.41	768.498
5	186522	27.51	771.276
5	187257	27.61	774.054
5	187992	27.71	776.832
5	188727	27.81	779.609
5	189462	27.91	782.387
5	190202	28.01	785.165
5	190937	28.11	787.943
5	191672	28.21	790.721
5	192407	28.31	793.498
5	193142	28.41	796.276
5	193877	28.51	799.054
5	194612	28.61	801.832
5	195347	28.71	804.609
5	196082	28.81	807.387
5	196817	28.91	810.165
5	197557	29.01	812.943
5	198292	29.11	815.721
5	199027	29.21	818.498
5	199762	29.31	821.276
5	200497	29.41	824.054
5	201232	29.51	826.832
5	201967	29.61	829.609
5	202702	29.71	832.387
5	203437	29.81	835.165
5	204172	29.91	837.943
5	204912	30.01	840.721
5	205647	30.11	843.498
5	206382	30.21	846.276
5	207117	30.31	849.054
5	207852	30.41	851.832
5	208587	30.51	854.61
5	209322	30.61	857.387
5	210057	30.71	860.165
5	210792	30.81	862.943
5	211527	30.91	865.721
5	212267	31.01	868.498
5	213002	31.11	871.276
5	213737	31.21	874.054
5	214472	31.31	876.832
5	215207	31.41	879.61
5	215942	31.51	882.387
5	216677	31.61	885.165
5	217412	31.71	887.943
5	218147	31.81	890.721
5	218882	31.91	893.498
5	219622	32.01	896.276
5	220357	32.11	899.054
5	221092	32.21	901.832
5	221827	32.31	904.61
5	222562	32.41	907.387
5	223297	32.51	910.165
5	224032	32.61	912.943
5	224767	32.71	915.721
5	225502	32.81	918.498
[...]
105	633189	88.103729136905	4
105	633924	88.203731377837	4
105	634659	88.303720618757	4
105	635394	88.403722859665	4
105	636129	88.503725100561	4
105	636864	88.603727341446	4
105	637599	88.703729582321	4
105	638334	88.803731823183	4
105	639069	88.903721064036	4
105	639809	89.003723304879	4
105	640544	89.103725545709	4
105	641279	89.20372778653	4
105	642014	89.303730027341	4
105	642749	89.403732268142	4
105	643484	89.503721508933	4
105	644219	89.603723749714	4
105	644954	89.703725990487	4
105	645689	89.80372823125	4
105	646424	89.903730472003	4
105	647164	90.003719712748	4
105	647899	90.103721953483	4
105	648634	90.20372419421	4
105	649369	90.303726434928	4
105	650104	90.403728675637	4
105	650839	90.503730916339	4
105	651574	90.603720157032	4
105	652309	90.703722397717	4
105	653044	90.803724638393	4
105	653779	90.903726879062	4
105	654519	91.003729119723	4
105	655254	91.103731360376	4
105	655989	91.203720601022	4
105	656724	91.303722841661	4
105	657459	91.403725082292	4
105	658194	91.503727322916	4
105	658929	91.603729563533	4
105	659664	91.703731804143	4
105	660399	91.803721044746	4
105	661134	91.903723285343	4
105	661874	92.003725525932	4
105	662609	92.103727766515	4
105	663344	92.203730007092	4
105	664079	92.303732247663	4
105	664814	92.403721488227	4
105	665549	92.503723728784	4
105	666284	92.603725969336	4
105	667019	92.703728209882	4
105	667754	92.803730450422	4
105	668489	92.903719690957	4
105	669229	93.003721931485	4
105	669964	93.103724172008	4
105	670699	93.203726412525	4
105	671434	93.303728653037	4
105	672169	93.403730893544	4
105	672904	93.503720134045	4
105	673639	93.603722374542	4
105	674374	93.703724615033	4
105	675109	93.80372685552	4
105	675844	93.903729096001	4
105	676584	94.003731336478	4
105	677319	94.103720576949	4
105	678054	94.203722817416	4
105	678789	94.303725057878	4
105	679524	94.403727298335	4
105	680259	94.503729538788	4
105	680994	94.603731779237	4
105	681729	94.703721019681	4
105	682464	94.80372326012	4
105	683199	94.903725500556	4
105	683939	95.003727740988	4
105	684674	95.103729981415	4
105	685409	95.203732221838	4
105	686144	95.303721462257	4
105	686879	95.403723702672	4
105	687614	95.503725943084	4
105	688349	95.603728183492	4
105	689084	95.703730423897	4
105	689819	95.803719664297	4
105	690554	95.903721904694	4
105	691294	96.003724145087	4
105	692029	96.103726385477	4
105	692764	96.203728625864	4
105	693499	96.303730866247	4
105	694234	96.403720106626	4
105	694969	96.503722347003	4
105	695704	96.603724587376	4
105	696439	96.703726827745	4
105	697174	96.803729068112	4
105	697909	96.903731308475	4
105	698649	97.003720548836	4
105	699384	97.103722789193	4
105	700119	97.203725029548	4
105	700854	97.303727269899	4
105	701589	97.403729510248	4
105	702324	97.503731750593	4
104	387937	54.754663114499	4
104	388672	54.854665427753	4
104	389407	54.954667740901	4
104	390147	55.054670053934	4
104	390882	55.154672366842	4
104	391617	55.254661679611	4
104	392352	55.354663992227	4
104	393087	55.454666304674	4
104	393822	55.554668616933	4
104	394557	55.654670928988	4
104	395292	55.754673240819	4
104	396027	55.854662552407	4
104	396762	55.954664863735	4
104	397502	56.054667174784	4
104	398237	56.154669485535	4
104	398972	56.25467179597	4
104	399707	56.354661106071	4
104	400442	56.454663415821	4
104	401177	56.554665725203	4
104	401912	56.654668034202	4
104	402647	56.754670342803	4
104	403382	56.854672650991	4
104	404117	56.954661958753	4
104	404857	57.054664266075	4
104	405592	57.154666572944	4
104	406327	57.254668879349	4
104	407062	57.354671185278	4
104	407797	57.454673490722	4
104	408532	57.55466279567	4
104	409267	57.654665100114	4
104	410002	57.754667404044	4
104	410737	57.854669707453	4
104	411472	57.954672010333	4
104	412212	58.054661312678	4
104	412947	58.154663614482	4
104	413682	58.25466591574	4
104	414417	58.354668216446	4
104	415152	58.454670516595	4
104	415887	58.554672816183	4
104	416622	58.654662115207	4
104	417357	58.754664413664	4
104	418092	58.854666711551	4
104	418827	58.954669008866	4
104	419567	59.054671305606	4
104	420302	59.15467360177	4
104	421037	59.254662897357	4
104	421772	59.354665192366	4
104	422507	59.454667486797	4
104	423242	59.55466978065	4
104	423977	59.654672073925	4
104	424712	59.754661366622	4
104	425447	59.854663658742	4
104	426182	59.954665950286	4
104	426922	60.054668241255	4
104	427657	60.154670531651	4
104	428392	60.254672821476	4
104	429127	60.354662110731	4
104	429862	60.454664399419	4
104	430597	60.554666687541	4
104	431332	60.6546689751	4
104	432067	60.754671262099	4
104	432802	60.85467354854	4
104	433537	60.954662834427	4
104	434277	61.054665119763	4
104	435012	61.154667404551	4
104	435747	61.254669688794	4
104	436482	61.354671972497	4
104	437217	61.454661255662	4
104	437952	61.554663538294	4
104	438687	61.654665820396	4
104	439422	61.754668101971	4
104	440157	61.854670383024	4
104	440892	61.954672663559	4
104	441632	62.05466194358	4
104	442367	62.154664223092	4
104	443102	62.254666502099	4
104	443837	62.354668780604	4
104	444572	62.454671058613	4
104	445307	62.55467333613	4
104	446042	62.654662613159	4
104	446777	62.754664889704	4
104	447512	62.854667165771	4
104	448247	62.954669441364	4
104	448987	63.054671716487	4
104	449722	63.154660991144	4
104	450457	63.254663265341	4
104	451192	63.354665539082	4
104	451927	63.454667812373	4
104	452662	63.554670085217	4
104	453397	63.654672357619	4
104	454132	63.754661629585	4
104	454867	63.854663901118	4
104	455602	63.954666172224	4
104	456342	64.054668442906	4
104	457077	64.15467071317	4
104	457812	64.25467298302	4
104	458547	64.354662252461	4
104	459282	64.454664521497	4
104	460017	64.554666790133	4
104	460752	64.654669058374	4
104	461487	64.754671326225	4
104	462222	64.85467359369	4
104	462957	64.954662860773	4
104	463697	65.054665127479	4
104	464432	65.154667393812	4
104	465167	65.254669659777	4
104	465902	65.354671925378	4
104	466637	65.45466119062	4
104	467372	65.554663455507	4
104	468107	65.654665720044	4
104	468842	65.754667984235	4
104	469577	65.854670248084	4
104	470312	65.954672511596	4
104	471052	66.054661774774	4
104	471787	66.154664037623	4
104	472522	66.254666300147	4
104	473257	66.354668562351	4
104	473992	66.454670824237	4
104	474727	66.554673085811	4
104	475462	66.654662347076	4
104	476197	66.754664608037	4
104	476932	66.854666868698	4
104	477667	66.954669129061	4
104	478407	67.054671389132	4
104	479142	67.154660648914	4
104	479877	67.254662908411	4
104	480612	67.354665167627	4
104	481347	67.454667426565	4
104	482082	67.55466968523	4
104	482817	67.654671943624	4
104	483552	67.754661201752	4
104	484287	67.854663459616	4
104	485022	67.954665717221	4
104	485762	68.05466797457	4
104	486497	68.154670231667	4
104	487232	68.254672488515	4
104	487967	68.354661745117	4
104	488702	68.454664001478	4
104	489437	68.554666257599	4
104	490172	68.654668513485	4
104	490907	68.754670769138	4
104	491642	68.854673024563	4
104	492377	68.954662279761	4
104	493117	69.054664534737	4
104	493852	69.154666789494	4
104	494587	69.254669044034	4
104	495322	69.35467129836	4
104	496057	69.454673552475	4
104	496792	69.554662806383	4
104	497527	69.654665060087	4
104	498262	69.754667313588	4
104	498997	69.854669566891	4
104	499732	69.954671819998	4
104	500472	70.054661072911	4
104	501207	70.154663325634	4
104	501942	70.254665578169	4
104	502677	70.354667830519	4
104	503412	70.454670082687	4
104	504147	70.554672334674	4
104	504882	70.654661586484	4
104	505617	70.754663838119	4
104	506352	70.854666089583	4
104	507087	70.954668340877	4
104	507827	71.054670592004	4
104	508562	71.154672842966	4
104	509297	71.254662093765	4
104	510032	71.354664344404	4
104	510767	71.454666594885	4
104	511502	71.554668845211	4
104	512237	71.654671095384	4
104	512972	71.754673345406	4
104	513707	71.854662595279	4
104	514442	71.954664845005	4
104	515182	72.054667094586	4
104	515917	72.154669344026	4
104	516652	72.254671593325	4
104	517387	72.354660842486	4
104	518122	72.454663091511	4
104	518857	72.554665340402	4
104	519592	72.65466758916	4
104	520327	72.754669837788	4
104	521062	72.854672086288	4
104	521797	72.954661334661	4
104	522537	73.05466358291	4
104	523272	73.154665831036	4
104	524007	73.254668079041	4
104	524742	73.354670326927	4
104	525477	73.454672574696	4
104	526212	73.554661822349	4
104	526947	73.654664069888	4
104	527682	73.754666317315	4
104	528417	73.854668564631	4
104	529152	73.954670811838	4
104	529892	74.054673058938	4
104	530627	74.154662305932	4
104	531362	74.254664552823	4
104	532097	74.354666799611	4
104	532832	74.454669046298	4
104	533567	74.554671292885	4
104	534302	74.654673539375	4
104	535037	74.754662785768	4
104	535772	74.854665032066	4
104	536507	74.95466727827	4
104	537247	75.054669524382	4
104	537982	75.154671770403	4
104	538717	75.254661016335	4
104	539452	75.354663262179	4
104	540187	75.454665507936	4
104	540922	75.554667753607	4
104	541657	75.654669999194	4
104	542392	75.754672244698	4
104	543127	75.854661490121	4
104	543862	75.954663735463	4
104	544602	76.054665980725	4
104	545337	76.15466822591	4
104	546072	76.254670471017	4
104	546807	76.354672716049	4
104	547542	76.454661961007	4
104	548277	76.554664205891	4
104	549012	76.654666450702	4
104	549747	76.754668695442	4
104	550482	76.854670940112	4
104	551217	76.954673184713	4
104	551957	77.054662429246	4
104	552692	77.154664673712	4
104	553427	77.254666918112	4
104	554162	77.354669162447	4
104	554897	77.454671406718	4
104	555632	77.554660650926	4
104	556367	77.654662895072	4
104	557102	77.754665139156	4
104	557837	77.854667383181	4
104	558572	77.954669627146	4
104	559312	78.054671871053	4
104	560047	78.154661114903	4
104	560782	78.254663358695	4
104	561517	78.354665602432	4
104	562252	78.454667846114	4
104	562987	78.554670089742	4
104	563722	78.654672333317	4
104	564457	78.754661576839	4
104	565192	78.85466382031	4
104	565927	78.95466606373	4
104	566667	79.054668307099	4
104	567402	79.15467055042	4
104	568137	79.254672793692	4
104	568872	79.354662036916	4
104	569607	79.454664280093	4
104	570342	79.554666523224	4
104	571077	79.654668766309	4
104	571812	79.754671009349	4
104	572547	79.854673252345	4
104	573282	79.954662495297	4
104	574022	80.054664738207	4
104	574757	80.154666981074	4
104	575492	80.254669223899	4
104	576227	80.354671466684	4
104	576962	80.454660709428	4
104	577697	80.554662952132	4
104	578432	80.654665194798	4
104	579167	80.754667437424	4
104	579902	80.854669680013	4
104	580637	80.954671922564	4
104	581377	81.054661165079	4
104	582112	81.154663407558	4
104	582847	81.254665650001	4
104	583582	81.354667892409	4
104	584317	81.454670134782	4
104	585052	81.554672377121	4
104	585787	81.654661619427	4
104	586522	81.7546638617	4
104	587257	81.85466610394	4
104	587992	81.954668346149	4
104	588732	82.054670588326	4
104	589467	82.154672830471	4
104	590202	82.254662072586	4
104	590937	82.354664314671	4
104	591672	82.454666556727	4
104	592407	82.554668798753	4
104	593142	82.65467104075	4
104	593877	82.754673282719	4
104	594612	82.85466252466	4
104	595347	82.954664766573	4
104	596087	83.05466700846	4
104	596822	83.15466925032	4
104	597557	83.254671492154	4
104	598292	83.354660733962	4
104	599027	83.454662975746	4
104	599762	83.554665217504	4
104	600497	83.654667459238	4
104	601232	83.754669700947	4
104	601967	83.854671942632	4
104	602702	83.954661184294	4
104	603442	84.054663425933	4
104	604177	84.15466566755	4
104	604912	84.254667909144	4
104	605647	84.354670150716	4
104	606382	84.454672392266	4
104	607117	84.554661633794	4
104	607852	84.654663875302	4
104	608587	84.754666116788	4
104	609322	84.854668358254	4
104	610057	84.9546705997	4
104	610797	85.054672841127	4
104	611532	85.154662082534	4
104	612267	85.254664323922	4
104	613002	85.354666565291	4
104	613737	85.454668806642	4
104	614472	85.554671047974	4
104	615207	85.654673289288	4
104	615942	85.754662530584	4
104	616677	85.854664771863	4
104	617412	85.954667013125	4
104	618152	86.05466925437	4
104	618887	86.154671495598	4
104	619622	86.25466073681	4
104	620357	86.354662978006	4
104	621092	86.454665219186	4
104	621827	86.55466746035	4
104	622562	86.654669701498	4
104	623297	86.754671942631	4
104	624032	86.854661183749	4
104	624767	86.954663424852	4
104	625507	87.054665665941	4
104	626242	87.154667907016	4
104	626977	87.254670148077	4
104	627712	87.354672389124	4
104	628447	87.454661630157	4
104	629182	87.554663871177	4
104	629917	87.654666112184	4
104	630652	87.754668353178	4
104	631387	87.854670594159	4
104	632122	87.954672835127	4
104	632862	88.054662076083	4
104	633597	88.154664317027	4
104	634332	88.254666557959	4
104	635067	88.354668798879	4
104	635802	88.454671039787	4
104	636537	88.554673280683	4
104	637272	88.654662521569	4
104	638007	88.754664762443	4
104	638742	88.854667003306	4
104	639477	88.954669244159	4
104	640217	89.054671485001	4
104	640952	89.154660725832	4
104	641687	89.254662966653	4
104	642422	89.354665207464	4
104	643157	89.454667448265	4
104	643892	89.554669689056	4
104	644627	89.654671929837	4
104	645362	89.75466117061	4
104	646097	89.854663411373	4
104	646832	89.954665652126	4
104	647572	90.054667892871	4
104	648307	90.154670133606	4
104	649042	90.254672374333	4
104	649777	90.354661615051	4
104	650512	90.454663855761	4
104	651247	90.554666096462	4
104	651982	90.654668337155	4
104	652717	90.75467057784	4
104	653452	90.854672818516	4
104	654187	90.954662059185	4
104	654927	91.054664299846	4
104	655662	91.1546665405	4
104	656397	91.254668781146	4
104	657132	91.354671021784	4
104	657867	91.454673262416	4
104	658602	91.55466250304	4
104	659337	91.654664743657	4
104	660072	91.754666984267	4
104	660807	91.85466922487	4
104	661542	91.954671465466	4
104	662282	92.054660706056	4
104	663017	92.154662946639	4
104	663752	92.254665187216	4
104	664487	92.354667427786	4
104	665222	92.45466966835	4
104	665957	92.554671908908	4
104	666692	92.65466114946	4
104	667427	92.754663390006	4
104	668162	92.854665630546	4
104	668897	92.95466787108	4
104	669637	93.054670111609	4
104	670372	93.154672352132	4
104	671107	93.254661592649	4
104	671842	93.354663833161	4
104	672577	93.454666073668	4
104	673312	93.554668314169	4
104	674047	93.654670554666	4
104	674782	93.754672795157	4
104	675517	93.854662035644	4
104	676252	93.954664276125	4
104	676992	94.054666516602	4
104	677727	94.154668757073	4
104	678462	94.25467099754	4
104	679197	94.354673238002	4
104	679932	94.454662478459	4
104	680667	94.554664718912	4
104	681402	94.654666959361	4
104	682137	94.754669199805	4
104	682872	94.854671440245	4
104	683607	94.954660680681	4
104	684347	95.054662921112	4
104	685082	95.154665161539	4
104	685817	95.254667401962	4
104	686552	95.354669642381	4
104	687287	95.454671882797	4
104	688022	95.554661123209	4
104	688757	95.654663363617	4
104	689492	95.754665604021	4
104	690227	95.854667844421	4
104	690962	95.954670084818	4
104	691702	96.054672325212	4
104	692437	96.154661565602	4
104	693172	96.254663805988	4
104	693907	96.354666046371	4
104	694642	96.454668286751	4
104	695377	96.554670527127	4
104	696112	96.6546727675	4
104	696847	96.75466200787	4
104	697582	96.854664248236	4
104	698317	96.9546664886	4
104	699057	97.05466872896	4
104	699792	97.154670969318	4
104	700527	97.254673209672	4
104	701262	97.354662450024	4
104	701997	97.454664690372	4
103	35317	7	0
103	42672	8	0
103	50027	9	0
103	57382	10	0
103	64737	11	0
103	72092	12	0
103	79447	13	0
103	86802	14	0
103	94157	15	0
103	101512	16	0
103	109202	17	0
103	116557	18	0
103	123912	19	0
103	131267	20	0
103	138622	21	0
103	145977	22	0
103	153332	23	0
103	160687	24	0
103	168042	25	0
103	175397	26	0
103	182752	27	0
103	190107	28	0
103	197462	29	0
103	204817	30	0
103	212172	31	0
103	219527	32	0
103	226882	33	0
103	234237	34	0
103	241592	35	0
103	248947	36	0
103	256302	37	0
103	263657	38	0
103	271012	39	0
103	278367	40	0
103	285722	41	0
103	293077	42	0
103	300432	43	0
103	307787	44	0
103	315142	45	0
103	322497	46	0
103	329852	47	0
103	337207	48	0
103	344562	49	0
103	351917	50	0
103	359272	51	0
103	366627	52	0
103	373982	53	0
103	381337	54	0
103	389688	55	0
103	397043	56	0
103	404398	57	0
103	411753	58	0
103	419108	59	0
103	426463	60	0
103	433818	61	0
103	441173	62	0
103	448528	63	0
103	455883	64	0
103	463238	65	0
103	470593	66	0
103	477948	67	0
103	485303	68	0
103	492658	69	0
103	500013	70	0
103	507368	71	0
103	514723	72	0
103	522078	73	0
103	529433	74	0
103	536788	75	0
103	544143	76	0
103	551498	77	0
103	558853	78	0
103	566208	79	0
103	573563	80	0
103	580918	81	0
103	588273	82	0
103	595628	83	0
103	602983	84	0
103	610338	85	0
103	617693	86	0
103	625048	87	0
103	632403	88	0
103	639758	89	0
103	647113	90	0
103	654468	91	0
103	661823	92	0
103	669178	93	0
103	676533	94	0
103	683888	95	0
103	691243	96	0
103	698598	97	0
102	35317	7	0.023817
102	42672	8	0.02481
102	50027	9	0.02481
102	57382	10	0.02481
102	64737	11	0.02481
102	72092	12	0.02481
102	79447	13	0.02481
102	86802	14	0.02481
102	94157	15	0.02481
102	101512	16	0.02481
102	109202	17	0.027135
102	116557	18	0.02481
102	123912	19	0.02481
102	131267	20	0.02481
102	138622	21	0.02481
102	145977	22	0.02481
102	153332	23	0.02481
102	160687	24	0.02481
102	168042	25	0.02481
102	175397	26	0.02481
102	182752	27	0.02481
102	190107	28	0.02481
102	197462	29	0.02481
102	204817	30	0.02481
102	212172	31	0.02481
102	219527	32	0.02481
102	226882	33	0.02481
102	234237	34	0.02481
102	241592	35	0.02481
102	248947	36	0.02481
102	256302	37	0.02481
102	263657	38	0.02481
102	271012	39	0.02481
102	278367	40	0.02481
102	285722	41	0.02481
102	293077	42	0.02481
102	300432	43	0.02481
102	307787	44	0.02481
102	315142	45	0.02481
102	322497	46	0.02481
102	329852	47	0.02481
102	337207	48	0.02481
102	344562	49	0.02481
102	351917	50	0.02481
102	359272	51	0.02481
102	366627	52	0.02481
102	373982	53	0.02481
102	381337	54	0.02481
102	389688	55	0.031778
102	397043	56	0.02481
102	404398	57	0.02481
102	411753	58	0.02481
102	419108	59	0.02481
102	426463	60	0.02481
102	433818	61	0.02481
102	441173	62	0.02481
102	448528	63	0.02481
102	455883	64	0.02481
102	463238	65	0.02481
102	470593	66	0.02481
102	477948	67	0.02481
102	485303	68	0.02481
102	492658	69	0.02481
102	500013	70	0.02481
102	507368	71	0.02481
102	514723	72	0.02481
102	522078	73	0.02481
102	529433	74	0.02481
102	536788	75	0.02481
102	544143	76	0.02481
102	551498	77	0.02481
102	558853	78	0.02481
102	566208	79	0.02481
102	573563	80	0.02481
102	580918	81	0.02481
102	588273	82	0.02481
102	595628	83	0.02481
102	602983	84	0.02481
102	610338	85	0.02481
102	617693	86	0.02481
102	625048	87	0.02481
102	632403	88	0.02481
102	639758	89	0.02481
102	647113	90	0.02481
102	654468	91	0.02481
102	661823	92	0.02481
102	669178	93	0.02481
102	676533	94	0.02481
102	683888	95	0.02481
102	691243	96	0.02481
102	698598	97	0.02481
101	35317	7	4
101	42672	8	4
101	50027	9	4
101	57382	10	4
101	64737	11	4
101	72092	12	4
101	79447	13	4
101	86802	14	4
101	94157	15	4
101	101512	16	4
101	109202	17	4
101	116557	18	4
101	123912	19	4
101	131267	20	4
101	138622	21	4
101	145977	22	4
101	153332	23	4
101	160687	24	4
101	168042	25	4
101	175397	26	4
101	182752	27	4
101	190107	28	4
101	197462	29	4
101	204817	30	4
101	212172	31	4
101	219527	32	4
101	226882	33	4
101	234237	34	4
101	241592	35	4
101	248947	36	4
101	256302	37	4
101	263657	38	4
101	271012	39	4
101	278367	40	4
101	285722	41	4
101	293077	42	4
101	300432	43	4
101	307787	44	4
101	315142	45	4
101	322497	46	4
101	329852	47	4
101	337207	48	4
101	344562	49	4
101	351917	50	4
101	359272	51	4
101	366627	52	4
101	373982	53	4
101	381337	54	4
101	389688	55	4
101	397043	56	4
101	404398	57	4
101	411753	58	4
101	419108	59	4
101	426463	60	4
101	433818	61	4
101	441173	62	4
101	448528	63	4
101	455883	64	4
101	463238	65	4
101	470593	66	4
101	477948	67	4
101	485303	68	4
101	492658	69	4
101	500013	70	4
101	507368	71	4
101	514723	72	4
101	522078	73	4
101	529433	74	4
101	536788	75	4
101	544143	76	4
101	551498	77	4
101	558853	78	4
101	566208	79	4
101	573563	80	4
101	580918	81	4
101	588273	82	4
101	595628	83	4
101	602983	84	4
101	610338	85	4
101	617693	86	4
101	625048	87	4
101	632403	88	4
101	639758	89	4
101	647113	90	4
101	654468	91	4
101	661823	92	4
101	669178	93	4
101	676533	94	4
101	683888	95	4
101	691243	96	4
101	698598	97	4
