version 2
run Default-0-20190108-21:20:41-2670
attr configname Default
attr datetime 20190108-21:20:41
attr experiment Default
attr inifile omnetpp.ini
attr iterationvars ""
attr iterationvarsf ""
attr measurement ""
attr network RSUExampleScenario
attr processid 2670
attr repetition 0
attr replication #0
attr resultdir results
attr runnumber 0
attr seedset 0
param **.coreDebug false
param **.debug false
param *.**.nic.mac1609_4.bitrate 6Mbps
param *.**.nic.mac1609_4.txPower 20mW
param *.**.nic.mac1609_4.useServiceChannel false
param *.**.nic.phy80211p.analogueModels "xmldoc(\"config.xml\")"
param *.**.nic.phy80211p.antenna "xmldoc(\"antenna.xml\", \"/root/Antenna[@id='monopole']\")"
param *.**.nic.phy80211p.decider "xmldoc(\"config.xml\")"
param *.**.nic.phy80211p.sensitivity -89dBm
param *.**.nic.phy80211p.thermalNoise -110dBm
param *.**.nic.phy80211p.usePropagationDelay true
param *.**.nic.phy80211p.useThermalNoise true
param *.annotations.draw true
param *.connectionManager.drawMaxIntfDist false
param *.connectionManager.maxInterfDist 2600m
param *.connectionManager.sendDirect true
param *.manager.autoShutdown true
param *.manager.configFile "\"erlangen.sumo.cfg\""
param *.manager.host "\"localhost\""
param *.manager.launchConfig "xmldoc(\"erlangen.launchd.xml\")"
param *.manager.port 9999
param *.manager.updateInterval 1s
param *.node[*0].veinsmobility.accidentCount 1
param *.node[*0].veinsmobility.accidentDuration 50s
param *.node[*0].veinsmobility.accidentStart 75s
param *.node[*].appl.beaconInterval 1s
param *.node[*].appl.dataOnSch false
param *.node[*].appl.headerLength "80 bit"
param *.node[*].appl.sendBeacons false
param *.node[*].applType "\"TraCIDemo11p\""
param *.node[*].veinsmobility.x 0
param *.node[*].veinsmobility.y 0
param *.node[*].veinsmobility.z 1.895
param *.node[*].veinsmobilityType.debug true
param *.obstacles.debug false
param *.obstacles.obstacles "xmldoc(\"config.xml\", \"//AnalogueModel[@type='SimpleObstacleShadowing']/obstacles\")"
param *.playgroundSizeX 2500m
param *.playgroundSizeY 2500m
param *.playgroundSizeZ 50m
param *.rsu[*].appl.beaconInterval 1s
param *.rsu[*].appl.beaconUserPriority 7
param *.rsu[*].appl.dataOnSch false
param *.rsu[*].appl.dataUserPriority 5
param *.rsu[*].appl.headerLength "80 bit"
param *.rsu[*].appl.sendBeacons false
param *.rsu[*].applType "\"TraCIDemoRSU11p\""
param *.rsu[0].mobility.x 2000
param *.rsu[0].mobility.y 2000
param *.rsu[0].mobility.z 3

vector 4  RSUExampleScenario.node[0].veinsmobility  posx  ETV
vector 5  RSUExampleScenario.node[0].veinsmobility  posy  ETV
vector 6  RSUExampleScenario.node[0].veinsmobility  speed  ETV
vector 7  RSUExampleScenario.node[0].veinsmobility  acceleration  ETV
vector 8  RSUExampleScenario.node[0].veinsmobility  co2emission  ETV
vector 11  RSUExampleScenario.node[1].veinsmobility  posx  ETV
vector 12  RSUExampleScenario.node[1].veinsmobility  posy  ETV
vector 13  RSUExampleScenario.node[1].veinsmobility  speed  ETV
vector 14  RSUExampleScenario.node[1].veinsmobility  acceleration  ETV
vector 15  RSUExampleScenario.node[1].veinsmobility  co2emission  ETV
vector 18  RSUExampleScenario.node[2].veinsmobility  posx  ETV
vector 19  RSUExampleScenario.node[2].veinsmobility  posy  ETV
vector 20  RSUExampleScenario.node[2].veinsmobility  speed  ETV
vector 21  RSUExampleScenario.node[2].veinsmobility  acceleration  ETV
vector 22  RSUExampleScenario.node[2].veinsmobility  co2emission  ETV
vector 25  RSUExampleScenario.node[3].veinsmobility  posx  ETV
vector 26  RSUExampleScenario.node[3].veinsmobility  posy  ETV
vector 27  RSUExampleScenario.node[3].veinsmobility  speed  ETV
vector 28  RSUExampleScenario.node[3].veinsmobility  acceleration  ETV
vector 29  RSUExampleScenario.node[3].veinsmobility  co2emission  ETV
vector 32  RSUExampleScenario.node[4].veinsmobility  posx  ETV
vector 33  RSUExampleScenario.node[4].veinsmobility  posy  ETV
vector 34  RSUExampleScenario.node[4].veinsmobility  speed  ETV
vector 35  RSUExampleScenario.node[4].veinsmobility  acceleration  ETV
vector 36  RSUExampleScenario.node[4].veinsmobility  co2emission  ETV
vector 39  RSUExampleScenario.node[5].veinsmobility  posx  ETV
vector 40  RSUExampleScenario.node[5].veinsmobility  posy  ETV
vector 41  RSUExampleScenario.node[5].veinsmobility  speed  ETV
vector 42  RSUExampleScenario.node[5].veinsmobility  acceleration  ETV
vector 43  RSUExampleScenario.node[5].veinsmobility  co2emission  ETV
vector 46  RSUExampleScenario.node[6].veinsmobility  posx  ETV
vector 47  RSUExampleScenario.node[6].veinsmobility  posy  ETV
vector 48  RSUExampleScenario.node[6].veinsmobility  speed  ETV
vector 49  RSUExampleScenario.node[6].veinsmobility  acceleration  ETV
vector 50  RSUExampleScenario.node[6].veinsmobility  co2emission  ETV
vector 53  RSUExampleScenario.node[7].veinsmobility  posx  ETV
vector 54  RSUExampleScenario.node[7].veinsmobility  posy  ETV
vector 55  RSUExampleScenario.node[7].veinsmobility  speed  ETV
vector 56  RSUExampleScenario.node[7].veinsmobility  acceleration  ETV
vector 57  RSUExampleScenario.node[7].veinsmobility  co2emission  ETV
vector 60  RSUExampleScenario.node[8].veinsmobility  posx  ETV
vector 61  RSUExampleScenario.node[8].veinsmobility  posy  ETV
vector 62  RSUExampleScenario.node[8].veinsmobility  speed  ETV
vector 63  RSUExampleScenario.node[8].veinsmobility  acceleration  ETV
vector 64  RSUExampleScenario.node[8].veinsmobility  co2emission  ETV
vector 67  RSUExampleScenario.node[9].veinsmobility  posx  ETV
vector 68  RSUExampleScenario.node[9].veinsmobility  posy  ETV
vector 69  RSUExampleScenario.node[9].veinsmobility  speed  ETV
vector 70  RSUExampleScenario.node[9].veinsmobility  acceleration  ETV
vector 71  RSUExampleScenario.node[9].veinsmobility  co2emission  ETV
vector 74  RSUExampleScenario.node[10].veinsmobility  posx  ETV
vector 75  RSUExampleScenario.node[10].veinsmobility  posy  ETV
vector 76  RSUExampleScenario.node[10].veinsmobility  speed  ETV
vector 77  RSUExampleScenario.node[10].veinsmobility  acceleration  ETV
vector 78  RSUExampleScenario.node[10].veinsmobility  co2emission  ETV
vector 81  RSUExampleScenario.node[11].veinsmobility  posx  ETV
vector 82  RSUExampleScenario.node[11].veinsmobility  posy  ETV
vector 83  RSUExampleScenario.node[11].veinsmobility  speed  ETV
vector 84  RSUExampleScenario.node[11].veinsmobility  acceleration  ETV
vector 85  RSUExampleScenario.node[11].veinsmobility  co2emission  ETV
vector 88  RSUExampleScenario.node[12].veinsmobility  posx  ETV
vector 89  RSUExampleScenario.node[12].veinsmobility  posy  ETV
vector 90  RSUExampleScenario.node[12].veinsmobility  speed  ETV
vector 91  RSUExampleScenario.node[12].veinsmobility  acceleration  ETV
vector 92  RSUExampleScenario.node[12].veinsmobility  co2emission  ETV
vector 95  RSUExampleScenario.node[13].veinsmobility  posx  ETV
vector 96  RSUExampleScenario.node[13].veinsmobility  posy  ETV
vector 97  RSUExampleScenario.node[13].veinsmobility  speed  ETV
vector 98  RSUExampleScenario.node[13].veinsmobility  acceleration  ETV
vector 99  RSUExampleScenario.node[13].veinsmobility  co2emission  ETV
vector 102  RSUExampleScenario.node[14].veinsmobility  posx  ETV
vector 103  RSUExampleScenario.node[14].veinsmobility  posy  ETV
vector 104  RSUExampleScenario.node[14].veinsmobility  speed  ETV
vector 105  RSUExampleScenario.node[14].veinsmobility  acceleration  ETV
vector 106  RSUExampleScenario.node[14].veinsmobility  co2emission  ETV
vector 109  RSUExampleScenario.node[15].veinsmobility  posx  ETV
vector 110  RSUExampleScenario.node[15].veinsmobility  posy  ETV
vector 111  RSUExampleScenario.node[15].veinsmobility  speed  ETV
vector 112  RSUExampleScenario.node[15].veinsmobility  acceleration  ETV
vector 113  RSUExampleScenario.node[15].veinsmobility  co2emission  ETV
vector 116  RSUExampleScenario.node[16].veinsmobility  posx  ETV
vector 117  RSUExampleScenario.node[16].veinsmobility  posy  ETV
vector 118  RSUExampleScenario.node[16].veinsmobility  speed  ETV
vector 119  RSUExampleScenario.node[16].veinsmobility  acceleration  ETV
vector 120  RSUExampleScenario.node[16].veinsmobility  co2emission  ETV
vector 123  RSUExampleScenario.node[17].veinsmobility  posx  ETV
vector 124  RSUExampleScenario.node[17].veinsmobility  posy  ETV
vector 125  RSUExampleScenario.node[17].veinsmobility  speed  ETV
vector 126  RSUExampleScenario.node[17].veinsmobility  acceleration  ETV
vector 127  RSUExampleScenario.node[17].veinsmobility  co2emission  ETV
vector 130  RSUExampleScenario.node[18].veinsmobility  posx  ETV
vector 131  RSUExampleScenario.node[18].veinsmobility  posy  ETV
vector 132  RSUExampleScenario.node[18].veinsmobility  speed  ETV
vector 133  RSUExampleScenario.node[18].veinsmobility  acceleration  ETV
vector 134  RSUExampleScenario.node[18].veinsmobility  co2emission  ETV
vector 137  RSUExampleScenario.node[19].veinsmobility  posx  ETV
vector 138  RSUExampleScenario.node[19].veinsmobility  posy  ETV
vector 139  RSUExampleScenario.node[19].veinsmobility  speed  ETV
vector 140  RSUExampleScenario.node[19].veinsmobility  acceleration  ETV
vector 141  RSUExampleScenario.node[19].veinsmobility  co2emission  ETV
vector 144  RSUExampleScenario.node[20].veinsmobility  posx  ETV
vector 145  RSUExampleScenario.node[20].veinsmobility  posy  ETV
vector 146  RSUExampleScenario.node[20].veinsmobility  speed  ETV
vector 147  RSUExampleScenario.node[20].veinsmobility  acceleration  ETV
vector 148  RSUExampleScenario.node[20].veinsmobility  co2emission  ETV
vector 151  RSUExampleScenario.node[21].veinsmobility  posx  ETV
vector 152  RSUExampleScenario.node[21].veinsmobility  posy  ETV
vector 153  RSUExampleScenario.node[21].veinsmobility  speed  ETV
vector 154  RSUExampleScenario.node[21].veinsmobility  acceleration  ETV
vector 155  RSUExampleScenario.node[21].veinsmobility  co2emission  ETV
vector 158  RSUExampleScenario.node[22].veinsmobility  posx  ETV
vector 159  RSUExampleScenario.node[22].veinsmobility  posy  ETV
vector 160  RSUExampleScenario.node[22].veinsmobility  speed  ETV
vector 161  RSUExampleScenario.node[22].veinsmobility  acceleration  ETV
vector 162  RSUExampleScenario.node[22].veinsmobility  co2emission  ETV
vector 165  RSUExampleScenario.node[23].veinsmobility  posx  ETV
vector 166  RSUExampleScenario.node[23].veinsmobility  posy  ETV
vector 167  RSUExampleScenario.node[23].veinsmobility  speed  ETV
vector 168  RSUExampleScenario.node[23].veinsmobility  acceleration  ETV
vector 169  RSUExampleScenario.node[23].veinsmobility  co2emission  ETV
vector 172  RSUExampleScenario.node[24].veinsmobility  posx  ETV
vector 173  RSUExampleScenario.node[24].veinsmobility  posy  ETV
vector 174  RSUExampleScenario.node[24].veinsmobility  speed  ETV
vector 175  RSUExampleScenario.node[24].veinsmobility  acceleration  ETV
vector 176  RSUExampleScenario.node[24].veinsmobility  co2emission  ETV
vector 179  RSUExampleScenario.node[25].veinsmobility  posx  ETV
vector 180  RSUExampleScenario.node[25].veinsmobility  posy  ETV
vector 181  RSUExampleScenario.node[25].veinsmobility  speed  ETV
vector 182  RSUExampleScenario.node[25].veinsmobility  acceleration  ETV
vector 183  RSUExampleScenario.node[25].veinsmobility  co2emission  ETV
vector 186  RSUExampleScenario.node[26].veinsmobility  posx  ETV
vector 187  RSUExampleScenario.node[26].veinsmobility  posy  ETV
vector 188  RSUExampleScenario.node[26].veinsmobility  speed  ETV
vector 189  RSUExampleScenario.node[26].veinsmobility  acceleration  ETV
vector 190  RSUExampleScenario.node[26].veinsmobility  co2emission  ETV
vector 193  RSUExampleScenario.node[27].veinsmobility  posx  ETV
vector 194  RSUExampleScenario.node[27].veinsmobility  posy  ETV
vector 195  RSUExampleScenario.node[27].veinsmobility  speed  ETV
vector 196  RSUExampleScenario.node[27].veinsmobility  acceleration  ETV
vector 197  RSUExampleScenario.node[27].veinsmobility  co2emission  ETV
vector 200  RSUExampleScenario.node[28].veinsmobility  posx  ETV
vector 201  RSUExampleScenario.node[28].veinsmobility  posy  ETV
vector 202  RSUExampleScenario.node[28].veinsmobility  speed  ETV
vector 203  RSUExampleScenario.node[28].veinsmobility  acceleration  ETV
vector 204  RSUExampleScenario.node[28].veinsmobility  co2emission  ETV
vector 207  RSUExampleScenario.node[29].veinsmobility  posx  ETV
vector 208  RSUExampleScenario.node[29].veinsmobility  posy  ETV
vector 209  RSUExampleScenario.node[29].veinsmobility  speed  ETV
vector 210  RSUExampleScenario.node[29].veinsmobility  acceleration  ETV
vector 211  RSUExampleScenario.node[29].veinsmobility  co2emission  ETV
vector 214  RSUExampleScenario.node[30].veinsmobility  posx  ETV
vector 215  RSUExampleScenario.node[30].veinsmobility  posy  ETV
vector 216  RSUExampleScenario.node[30].veinsmobility  speed  ETV
vector 217  RSUExampleScenario.node[30].veinsmobility  acceleration  ETV
vector 218  RSUExampleScenario.node[30].veinsmobility  co2emission  ETV
vector 221  RSUExampleScenario.node[31].veinsmobility  posx  ETV
vector 222  RSUExampleScenario.node[31].veinsmobility  posy  ETV
vector 223  RSUExampleScenario.node[31].veinsmobility  speed  ETV
vector 224  RSUExampleScenario.node[31].veinsmobility  acceleration  ETV
vector 225  RSUExampleScenario.node[31].veinsmobility  co2emission  ETV
vector 228  RSUExampleScenario.node[32].veinsmobility  posx  ETV
vector 229  RSUExampleScenario.node[32].veinsmobility  posy  ETV
vector 230  RSUExampleScenario.node[32].veinsmobility  speed  ETV
vector 231  RSUExampleScenario.node[32].veinsmobility  acceleration  ETV
vector 232  RSUExampleScenario.node[32].veinsmobility  co2emission  ETV
vector 235  RSUExampleScenario.node[33].veinsmobility  posx  ETV
vector 236  RSUExampleScenario.node[33].veinsmobility  posy  ETV
vector 237  RSUExampleScenario.node[33].veinsmobility  speed  ETV
vector 238  RSUExampleScenario.node[33].veinsmobility  acceleration  ETV
vector 239  RSUExampleScenario.node[33].veinsmobility  co2emission  ETV
vector 242  RSUExampleScenario.node[34].veinsmobility  posx  ETV
vector 243  RSUExampleScenario.node[34].veinsmobility  posy  ETV
vector 244  RSUExampleScenario.node[34].veinsmobility  speed  ETV
vector 245  RSUExampleScenario.node[34].veinsmobility  acceleration  ETV
vector 246  RSUExampleScenario.node[34].veinsmobility  co2emission  ETV
vector 249  RSUExampleScenario.node[35].veinsmobility  posx  ETV
vector 250  RSUExampleScenario.node[35].veinsmobility  posy  ETV
vector 251  RSUExampleScenario.node[35].veinsmobility  speed  ETV
vector 252  RSUExampleScenario.node[35].veinsmobility  acceleration  ETV
vector 253  RSUExampleScenario.node[35].veinsmobility  co2emission  ETV
vector 256  RSUExampleScenario.node[36].veinsmobility  posx  ETV
vector 257  RSUExampleScenario.node[36].veinsmobility  posy  ETV
vector 258  RSUExampleScenario.node[36].veinsmobility  speed  ETV
vector 259  RSUExampleScenario.node[36].veinsmobility  acceleration  ETV
vector 260  RSUExampleScenario.node[36].veinsmobility  co2emission  ETV
vector 263  RSUExampleScenario.node[37].veinsmobility  posx  ETV
vector 264  RSUExampleScenario.node[37].veinsmobility  posy  ETV
vector 265  RSUExampleScenario.node[37].veinsmobility  speed  ETV
vector 266  RSUExampleScenario.node[37].veinsmobility  acceleration  ETV
vector 267  RSUExampleScenario.node[37].veinsmobility  co2emission  ETV
vector 270  RSUExampleScenario.node[38].veinsmobility  posx  ETV
vector 271  RSUExampleScenario.node[38].veinsmobility  posy  ETV
vector 272  RSUExampleScenario.node[38].veinsmobility  speed  ETV
vector 273  RSUExampleScenario.node[38].veinsmobility  acceleration  ETV
vector 274  RSUExampleScenario.node[38].veinsmobility  co2emission  ETV
vector 277  RSUExampleScenario.node[39].veinsmobility  posx  ETV
vector 278  RSUExampleScenario.node[39].veinsmobility  posy  ETV
vector 279  RSUExampleScenario.node[39].veinsmobility  speed  ETV
vector 280  RSUExampleScenario.node[39].veinsmobility  acceleration  ETV
vector 281  RSUExampleScenario.node[39].veinsmobility  co2emission  ETV
vector 284  RSUExampleScenario.node[40].veinsmobility  posx  ETV
vector 285  RSUExampleScenario.node[40].veinsmobility  posy  ETV
vector 286  RSUExampleScenario.node[40].veinsmobility  speed  ETV
vector 287  RSUExampleScenario.node[40].veinsmobility  acceleration  ETV
vector 288  RSUExampleScenario.node[40].veinsmobility  co2emission  ETV
vector 291  RSUExampleScenario.node[41].veinsmobility  posx  ETV
vector 292  RSUExampleScenario.node[41].veinsmobility  posy  ETV
vector 293  RSUExampleScenario.node[41].veinsmobility  speed  ETV
vector 294  RSUExampleScenario.node[41].veinsmobility  acceleration  ETV
vector 295  RSUExampleScenario.node[41].veinsmobility  co2emission  ETV
vector 298  RSUExampleScenario.node[42].veinsmobility  posx  ETV
vector 299  RSUExampleScenario.node[42].veinsmobility  posy  ETV
vector 300  RSUExampleScenario.node[42].veinsmobility  speed  ETV
vector 301  RSUExampleScenario.node[42].veinsmobility  acceleration  ETV
vector 302  RSUExampleScenario.node[42].veinsmobility  co2emission  ETV
vector 305  RSUExampleScenario.node[43].veinsmobility  posx  ETV
vector 306  RSUExampleScenario.node[43].veinsmobility  posy  ETV
vector 307  RSUExampleScenario.node[43].veinsmobility  speed  ETV
vector 308  RSUExampleScenario.node[43].veinsmobility  acceleration  ETV
vector 309  RSUExampleScenario.node[43].veinsmobility  co2emission  ETV
vector 312  RSUExampleScenario.node[44].veinsmobility  posx  ETV
vector 313  RSUExampleScenario.node[44].veinsmobility  posy  ETV
vector 314  RSUExampleScenario.node[44].veinsmobility  speed  ETV
vector 315  RSUExampleScenario.node[44].veinsmobility  acceleration  ETV
vector 316  RSUExampleScenario.node[44].veinsmobility  co2emission  ETV
vector 319  RSUExampleScenario.node[45].veinsmobility  posx  ETV
vector 320  RSUExampleScenario.node[45].veinsmobility  posy  ETV
vector 321  RSUExampleScenario.node[45].veinsmobility  speed  ETV
vector 322  RSUExampleScenario.node[45].veinsmobility  acceleration  ETV
vector 323  RSUExampleScenario.node[45].veinsmobility  co2emission  ETV
vector 326  RSUExampleScenario.node[46].veinsmobility  posx  ETV
vector 327  RSUExampleScenario.node[46].veinsmobility  posy  ETV
vector 328  RSUExampleScenario.node[46].veinsmobility  speed  ETV
vector 329  RSUExampleScenario.node[46].veinsmobility  acceleration  ETV
vector 330  RSUExampleScenario.node[46].veinsmobility  co2emission  ETV
vector 333  RSUExampleScenario.node[47].veinsmobility  posx  ETV
vector 334  RSUExampleScenario.node[47].veinsmobility  posy  ETV
vector 335  RSUExampleScenario.node[47].veinsmobility  speed  ETV
vector 336  RSUExampleScenario.node[47].veinsmobility  acceleration  ETV
vector 337  RSUExampleScenario.node[47].veinsmobility  co2emission  ETV
vector 340  RSUExampleScenario.node[48].veinsmobility  posx  ETV
vector 341  RSUExampleScenario.node[48].veinsmobility  posy  ETV
vector 342  RSUExampleScenario.node[48].veinsmobility  speed  ETV
vector 343  RSUExampleScenario.node[48].veinsmobility  acceleration  ETV
vector 344  RSUExampleScenario.node[48].veinsmobility  co2emission  ETV
vector 347  RSUExampleScenario.node[49].veinsmobility  posx  ETV
vector 348  RSUExampleScenario.node[49].veinsmobility  posy  ETV
vector 349  RSUExampleScenario.node[49].veinsmobility  speed  ETV
vector 350  RSUExampleScenario.node[49].veinsmobility  acceleration  ETV
vector 351  RSUExampleScenario.node[49].veinsmobility  co2emission  ETV
vector 354  RSUExampleScenario.node[50].veinsmobility  posx  ETV
vector 355  RSUExampleScenario.node[50].veinsmobility  posy  ETV
vector 356  RSUExampleScenario.node[50].veinsmobility  speed  ETV
vector 357  RSUExampleScenario.node[50].veinsmobility  acceleration  ETV
vector 358  RSUExampleScenario.node[50].veinsmobility  co2emission  ETV
vector 361  RSUExampleScenario.node[51].veinsmobility  posx  ETV
vector 362  RSUExampleScenario.node[51].veinsmobility  posy  ETV
vector 363  RSUExampleScenario.node[51].veinsmobility  speed  ETV
vector 364  RSUExampleScenario.node[51].veinsmobility  acceleration  ETV
vector 365  RSUExampleScenario.node[51].veinsmobility  co2emission  ETV
vector 368  RSUExampleScenario.node[52].veinsmobility  posx  ETV
vector 369  RSUExampleScenario.node[52].veinsmobility  posy  ETV
vector 370  RSUExampleScenario.node[52].veinsmobility  speed  ETV
vector 371  RSUExampleScenario.node[52].veinsmobility  acceleration  ETV
vector 372  RSUExampleScenario.node[52].veinsmobility  co2emission  ETV
vector 375  RSUExampleScenario.node[53].veinsmobility  posx  ETV
vector 376  RSUExampleScenario.node[53].veinsmobility  posy  ETV
vector 377  RSUExampleScenario.node[53].veinsmobility  speed  ETV
vector 378  RSUExampleScenario.node[53].veinsmobility  acceleration  ETV
vector 379  RSUExampleScenario.node[53].veinsmobility  co2emission  ETV
vector 382  RSUExampleScenario.node[54].veinsmobility  posx  ETV
vector 383  RSUExampleScenario.node[54].veinsmobility  posy  ETV
vector 384  RSUExampleScenario.node[54].veinsmobility  speed  ETV
vector 385  RSUExampleScenario.node[54].veinsmobility  acceleration  ETV
vector 386  RSUExampleScenario.node[54].veinsmobility  co2emission  ETV
vector 389  RSUExampleScenario.node[55].veinsmobility  posx  ETV
vector 390  RSUExampleScenario.node[55].veinsmobility  posy  ETV
vector 391  RSUExampleScenario.node[55].veinsmobility  speed  ETV
vector 392  RSUExampleScenario.node[55].veinsmobility  acceleration  ETV
vector 393  RSUExampleScenario.node[55].veinsmobility  co2emission  ETV
vector 396  RSUExampleScenario.node[56].veinsmobility  posx  ETV
vector 397  RSUExampleScenario.node[56].veinsmobility  posy  ETV
vector 398  RSUExampleScenario.node[56].veinsmobility  speed  ETV
vector 399  RSUExampleScenario.node[56].veinsmobility  acceleration  ETV
vector 400  RSUExampleScenario.node[56].veinsmobility  co2emission  ETV
vector 403  RSUExampleScenario.node[57].veinsmobility  posx  ETV
vector 404  RSUExampleScenario.node[57].veinsmobility  posy  ETV
vector 405  RSUExampleScenario.node[57].veinsmobility  speed  ETV
vector 406  RSUExampleScenario.node[57].veinsmobility  acceleration  ETV
vector 407  RSUExampleScenario.node[57].veinsmobility  co2emission  ETV
vector 410  RSUExampleScenario.node[58].veinsmobility  posx  ETV
vector 411  RSUExampleScenario.node[58].veinsmobility  posy  ETV
vector 412  RSUExampleScenario.node[58].veinsmobility  speed  ETV
vector 413  RSUExampleScenario.node[58].veinsmobility  acceleration  ETV
vector 414  RSUExampleScenario.node[58].veinsmobility  co2emission  ETV
vector 417  RSUExampleScenario.node[59].veinsmobility  posx  ETV
vector 418  RSUExampleScenario.node[59].veinsmobility  posy  ETV
vector 419  RSUExampleScenario.node[59].veinsmobility  speed  ETV
vector 420  RSUExampleScenario.node[59].veinsmobility  acceleration  ETV
vector 421  RSUExampleScenario.node[59].veinsmobility  co2emission  ETV
vector 424  RSUExampleScenario.node[60].veinsmobility  posx  ETV
vector 425  RSUExampleScenario.node[60].veinsmobility  posy  ETV
vector 426  RSUExampleScenario.node[60].veinsmobility  speed  ETV
vector 427  RSUExampleScenario.node[60].veinsmobility  acceleration  ETV
vector 428  RSUExampleScenario.node[60].veinsmobility  co2emission  ETV
vector 431  RSUExampleScenario.node[61].veinsmobility  posx  ETV
vector 432  RSUExampleScenario.node[61].veinsmobility  posy  ETV
vector 433  RSUExampleScenario.node[61].veinsmobility  speed  ETV
vector 434  RSUExampleScenario.node[61].veinsmobility  acceleration  ETV
vector 435  RSUExampleScenario.node[61].veinsmobility  co2emission  ETV
vector 438  RSUExampleScenario.node[62].veinsmobility  posx  ETV
vector 439  RSUExampleScenario.node[62].veinsmobility  posy  ETV
vector 440  RSUExampleScenario.node[62].veinsmobility  speed  ETV
vector 441  RSUExampleScenario.node[62].veinsmobility  acceleration  ETV
vector 442  RSUExampleScenario.node[62].veinsmobility  co2emission  ETV
vector 445  RSUExampleScenario.node[63].veinsmobility  posx  ETV
vector 446  RSUExampleScenario.node[63].veinsmobility  posy  ETV
vector 447  RSUExampleScenario.node[63].veinsmobility  speed  ETV
vector 448  RSUExampleScenario.node[63].veinsmobility  acceleration  ETV
vector 449  RSUExampleScenario.node[63].veinsmobility  co2emission  ETV
vector 452  RSUExampleScenario.node[64].veinsmobility  posx  ETV
vector 453  RSUExampleScenario.node[64].veinsmobility  posy  ETV
vector 454  RSUExampleScenario.node[64].veinsmobility  speed  ETV
vector 455  RSUExampleScenario.node[64].veinsmobility  acceleration  ETV
vector 456  RSUExampleScenario.node[64].veinsmobility  co2emission  ETV
vector 459  RSUExampleScenario.node[65].veinsmobility  posx  ETV
vector 460  RSUExampleScenario.node[65].veinsmobility  posy  ETV
vector 461  RSUExampleScenario.node[65].veinsmobility  speed  ETV
vector 462  RSUExampleScenario.node[65].veinsmobility  acceleration  ETV
vector 463  RSUExampleScenario.node[65].veinsmobility  co2emission  ETV
vector 466  RSUExampleScenario.node[66].veinsmobility  posx  ETV
vector 467  RSUExampleScenario.node[66].veinsmobility  posy  ETV
vector 468  RSUExampleScenario.node[66].veinsmobility  speed  ETV
8	4	3	3.9690439751639
8	5	4	4.8734986088453
8	6	5	6.2068327255978
8	7	6	7.2118621755177
8	8	7	8.2287933875323
8	9	8	3.0242689444712
8	10	9	2.410214010884
8	11	10	1.8042481683123
8	12	11	2.2766031729043
8	13	12	1.9910577970912
8	14	13	1.9816353748441
8	15	14	2.0006543718409
8	16	15	2.0156733927738
8	17	16	1.7275773004983
8	18	17	2.3491339177603
8	19	18	0.973
8	20	19	0.973
8	21	20	0.973
8	22	21	0.973
8	23	22	2.9202656039732
8	24	23	5.1829022112917
8	25	24	5.8409555110412
8	26	25	7.0478875101329
8	27	26	7.1923395024802
8	28	27	5.7035699225295
8	29	28	1.8542576609033
8	30	29	2.071579633465
8	31	30	2.033070591514
8	32	31	1.9708367886165
8	33	32	1.958947003716
8	34	33	2.1937519865362
8	35	34	2.0148851452489
8	36	35	1.9494556216079
8	37	36	2.1233313202265
8	38	37	2.0980065652139
8	39	38	2.0564960049267
8	40	39	1.8849385975403
8	41	40	2.0135217775437
8	42	41	2.1970455854856
8	43	42	2.0114927076469
8	44	43	1.8022364453996
8	45	44	2.4028055099799
8	46	45	1.7398103572212
8	47	46	2.0704874226364
8	48	47	1.9551479348163
8	49	48	2.0622988460067
8	50	49	2.1436920788903
8	51	50	1.9709420801269
8	52	51	2.2404713242546
8	53	52	1.6811177558643
8	54	53	2.1687186093148
8	55	54	2.068228125812
8	56	55	2.1189750795911
8	57	56	1.9158044765909
8	58	57	2.0646522515523
8	59	58	1.8795950099662
8	60	59	2.40991582857
8	61	60	2.060217812421
8	62	61	1.6101508281289
8	63	62	2.0174438220444
8	64	63	2.2227433300183
8	65	64	2.1956409213675
8	66	65	1.7698327313004
8	67	66	1.9334542286895
8	68	67	2.2331933794582
8	69	68	1.8269584545957
8	70	69	2.4094828911751
8	71	70	1.8423934072781
8	72	71	2.1030929112895
8	73	72	1.9463691603324
8	74	73	0.973
8	75	74	0.973
8	76	75	0.973
8	78	76	0.973
8	79	77	0.973
8	80	78	0.973
8	81	79	0.973
8	82	80	0.973
8	83	81	0.973
8	84	82	0.973
8	85	83	0.973
8	86	84	0.973
8	87	85	0.973
8	88	86	0.973
8	207	87	0.973
8	208	88	0.973
8	1961	89	0.973
8	1962	90	0.973
8	4268	91	0.973
8	4269	92	0.973
8	5258	93	0.973
8	5259	94	0.973
8	5385	95	0.973
8	5386	96	0.973
8	5508	97	0.973
8	5509	98	0.973
8	5510	99	0.973
8	5511	100	0.973
8	5512	101	0.973
8	5513	102	0.973
8	5514	103	0.973
8	5515	104	0.973
8	5516	105	0.973
8	5518	106	0.973
8	5519	107	0.973
8	5520	108	0.973
8	5521	109	0.973
8	5522	110	0.973
8	5523	111	0.973
8	5524	112	0.973
8	5525	113	0.973
8	5526	114	0.973
8	5527	115	0.973
8	5528	116	0.973
8	5529	117	0.973
8	5530	118	0.973
8	5531	119	0.973
8	5532	120	0.973
8	5533	121	0.973
8	5534	122	0.973
8	5535	123	0.973
8	5536	124	0.973
8	5537	125	0.973
8	5539	126	2.4110148964199
8	5540	127	4.3762142904929
8	5541	128	4.4482215371747
8	5542	129	5.4883776616249
8	5729	130	6.8338996134997
8	5730	131	7.487508317715
8	7557	132	7.2463886679137
8	7558	133	1.8736469224468
8	7746	134	2.0890641969687
8	7747	135	1.7847118530456
8	7936	136	2.424471041835
8	7937	137	1.6026273215021
8	7938	138	2.1844508262857
8	7939	139	2.1329165940934
8	7940	140	1.9202811456913
8	7941	141	2.2570252135652
8	7942	142	1.7092124494953
8	7943	143	2.2001887307963
8	7944	144	2.066390382259
8	7945	145	2.2144000026955
8	7946	146	2.0238570991803
8	7947	147	1.6169631889517
8	7948	148	2.3109593499213
8	7949	149	1.7893718415076
8	7950	150	2.2787983736996
8	7951	151	1.8406567093162
8	7952	152	2.2344425784029
8	7953	153	1.9315664771292
8	7954	154	2.0584510291845
8	7955	155	2.0003032874626
8	7957	156	2.2468034744443
8	7958	157	2.0028558603956
8	7959	158	1.7209579306654
8	7960	159	2.0580497434693
8	7961	160	2.0638924916582
8	7962	161	2.2562171353258
8	7963	162	1.848425684793
8	7964	163	1.9519878268263
8	7965	164	2.3014095817943
8	7966	165	1.7153104220625
8	7968	166	2.2847783600702
8	7969	167	1.7852646870096
8	7970	168	2.2743994637888
8	7971	169	1.8614928595242
8	7972	170	2.3038818863713
8	7973	171	1.7490787370998
8	7974	172	2.3098193087229
8	7975	173	1.8301868428965
8	7976	174	1.9392561410404
8	7977	175	2.3484511842005
8	7978	176	1.6735950913231
8	7979	177	2.2194127477174
8	7980	178	1.968353660952
8	7981	179	1.8894376534924
8	7982	180	2.0591648043872
8	7983	181	2.4083231291615
8	7984	182	1.8846644456448
8	7985	183	2.0645024571429
8	7986	184	1.9406264206591
8	7987	185	2.1644917614211
8	7989	186	1.9577084879739
8	7990	187	1.9563376376084
8	7991	188	1.8677559749289
8	7992	189	2.3407721771015
8	7993	190	2.0315389265986
8	7994	191	1.76795872301
8	7995	192	2.3536050547065
8	7996	193	1.9094116528536
8	7997	194	1.9142292227408
8	7998	195	2.0268475274462
8	8000	196	2.1464619254623
8	8001	197	1.869129501393
8	8002	198	2.2179198215622
8	8003	199	2.1069552891904
8	8004	200	2.0393339996775
7	4	3	1.8350836683181
7	5	4	1.8271086537745
7	6	5	1.9700068054721
7	7	6	1.9440954117314
7	8	7	1.9251633647294
7	9	8	0.3043542271355
7	10	9	0.11476667602547
7	11	10	-0.064753184660804
7	12	11	0.074470334358047
7	13	12	-0.010534379172604
7	14	13	-0.012970053050667
7	15	14	-0.0070667944545857
7	16	15	-0.0024941215664143
7	17	16	-0.086695689375047
7	18	17	0.096991665165405
7	19	18	-1.1627897896615
7	20	19	-3.2370594858455
7	21	20	-2.9603488400973
7	22	21	-2.5337033977468
7	23	22	1.2329252061435
7	24	23	2.094907346114
7	25	24	1.9011793446587
7	26	25	1.9599004447064
7	27	26	1.6991365455417
7	28	27	1.0915354850417
7	29	28	-0.052010718395469
7	30	29	0.01248028835049
7	31	30	0.00096433614380587
7	32	31	-0.017099415783305
7	33	32	-0.020069704249035
7	34	33	0.048505362290889
7	35	34	-0.0046603607200097
7	36	35	-0.023492567082867
7	37	36	0.027538535709027
7	38	37	0.01937479801709
7	39	38	0.0068101624515826
7	40	39	-0.043050197220873
7	41	40	-0.0045451738196416
7	42	41	0.048586284592748
7	43	42	-0.0064147925446747
7	44	43	-0.06697850137949
7	45	44	0.10845056370599
7	46	45	-0.086184235455002
7	47	46	0.012157847334166
7	48	47	-0.02162330031395
7	49	48	0.01007445028983
7	50	49	0.033280818574131
7	51	50	-0.017653799874243
7	52	51	0.060609251707794
7	53	52	-0.10310439425055
7	54	53	0.04136053440161
7	55	54	0.011047466655729
7	56	55	0.025352031746879
7	57	56	-0.034127474795095
7	58	57	0.0099455157318147
7	59	58	-0.043998417782131
7	60	59	0.11027641468448
7	61	60	0.0063770599314008
7	62	61	-0.12437126584118
7	63	62	-0.002486674915998
7	64	63	0.056955466950312
7	65	64	0.047281749872491
7	66	65	-0.077224377754611
7	67	66	-0.027593536539934
7	68	67	0.059983630857896
7	69	68	-0.05946393133374
7	70	69	0.11053127134917
7	71	70	-0.056278499371837
7	72	71	0.020738100388552
7	73	72	-0.02517115517985
7	74	73	-1.6366440532162
7	75	74	-3.2727100428296
7	76	75	-2.8991261011466
7	78	76	-4.5
7	79	77	-1.6130176202615
7	80	78	0
7	81	79	0
7	82	80	0
7	83	81	0
7	84	82	0
7	85	83	0
7	86	84	0
7	87	85	0
7	88	86	0
7	207	87	0
7	208	88	0
7	1961	89	0
7	1962	90	0
7	4268	91	0
7	4269	92	0
7	5258	93	0
7	5259	94	0
7	5385	95	0
7	5386	96	0
7	5508	97	0
7	5509	98	0
7	5510	99	0
7	5511	100	0
7	5512	101	0
7	5513	102	0
7	5514	103	0
7	5515	104	0
7	5516	105	0
7	5518	106	0
7	5519	107	0
7	5520	108	0
7	5521	109	0
7	5522	110	0
7	5523	111	0
7	5524	112	0
7	5525	113	0
7	5526	114	0
7	5527	115	0
7	5528	116	0
7	5529	117	0
7	5530	118	0
7	5531	119	0
7	5532	120	0
7	5533	121	0
7	5534	122	0
7	5535	123	0
7	5536	124	0
7	5537	125	0
7	5539	126	2.2246102428935
7	5540	127	2.6
7	5541	128	1.8560920864087
7	5542	129	1.891119004183
7	5729	130	2.0029415552062
7	5730	131	1.8673577700625
7	7557	132	1.5452149971006
7	7558	133	-0.047345833701547
7	7746	134	0.016261815349571
7	7747	135	-0.072407276278827
7	7936	136	0.1143618238857
7	7937	137	-0.12656636003871
7	7938	138	0.045922909667716
7	7939	139	0.029595267204567
7	7940	140	-0.032748176157474
7	7941	141	0.065372841688804
7	7942	142	-0.09499355140375
7	7943	143	0.050028323524167
7	7944	144	0.0098797714314429
7	7945	145	0.05213887388585
7	7946	146	-0.0042207782180039
7	7947	147	-0.12225061865523
7	7948	148	0.08236208234448
7	7949	149	-0.070962024249601
7	7950	150	0.072734668047632
7	7951	151	-0.056071815898177
7	7952	152	0.059429106807803
7	7953	153	-0.029769370523281
7	7954	154	0.0077902077697214
7	7955	155	-0.0092483466956761
7	7957	156	0.062029640041292
7	7958	157	-0.010033515868709
7	7959	158	-0.091538168769329
7	7960	159	0.0089064160035921
7	7961	160	0.010329422608484
7	7962	161	0.065415071730968
7	7963	162	-0.054257343441714
7	7964	163	-0.022728252974339
7	7965	164	0.078772114845924
7	7966	165	-0.093068624779116
7	7968	166	0.074496628276538
7	7969	167	-0.072214205316268
7	7970	168	0.07143811681075
7	7971	169	-0.05000507550314
7	7972	170	0.079152790252119
7	7973	171	-0.083447758869733
7	7974	172	0.081003105540294
7	7975	173	-0.059789288458415
7	7976	174	-0.026524975288194
7	7977	175	0.092249054922723
7	7978	176	-0.10555711968802
7	7979	177	0.055679783248342
7	7980	178	-0.018528794979211
7	7981	179	-0.040933821906801
7	7982	180	0.0095189137756826
7	7983	181	0.109635523092
7	7984	182	-0.044399497108534
7	7985	183	0.0088107110303834
7	7986	184	-0.027232948692982
7	7987	185	0.038166339707095
7	7989	186	-0.022594285153318
7	7990	187	-0.022358971254434
7	7991	188	-0.047472565355712
7	7992	189	0.090585710084998
7	7993	190	-0.001224934463389
7	7994	191	-0.077599320798182
7	7995	192	0.093839812988881
7	7996	193	-0.036928499036001
7	7997	194	-0.034532751443331
7	7998	195	-0.00091953622875707
7	8000	196	0.033649388996418
7	8001	197	-0.047582250081467
7	8002	198	0.054666622818912
7	8003	199	0.020998626307119
7	8004	200	0.00089298073435273
6	3	2	3.9572089270348
6	4	3	5.7922925953529
6	5	4	7.6194012491274
6	6	5	9.5894080545995
6	7	6	11.533503466331
6	8	7	13.45866683106
6	9	8	13.763021058196
6	10	9	13.877787734221
6	11	10	13.81303454956
6	12	11	13.887504883918
6	13	12	13.876970504746
6	14	13	13.864000451695
6	15	14	13.856933657241
6	16	15	13.854439535674
6	17	16	13.767743846299
6	18	17	13.864735511465
6	19	18	12.701945721803
6	20	19	9.4648862359575
6	21	20	6.5045373958602
6	22	21	3.9708339981135
6	23	22	5.203759204257
6	24	23	7.298666550371
6	25	24	9.1998458950297
6	26	25	11.159746339736
6	27	26	12.858882885278
6	28	27	13.95041837032
6	29	28	13.898407651924
6	30	29	13.910887940275
6	31	30	13.911852276418
6	32	31	13.894752860635
6	33	32	13.874683156386
6	34	33	13.923188518677
6	35	34	13.918528157957
6	36	35	13.895035590874
6	37	36	13.922574126583
6	38	37	13.9419489246
6	39	38	13.948759087052
6	40	39	13.905708889831
6	41	40	13.901163716011
6	42	41	13.949750000604
6	43	42	13.943335208059
6	44	43	13.87635670668
6	45	44	13.984807270386
6	46	45	13.898623034931
6	47	46	13.910780882265
6	48	47	13.889157581951
6	49	48	13.899232032241
6	50	49	13.932512850815
6	51	50	13.914859050941
6	52	51	13.975468302649
6	53	52	13.872363908398
6	54	53	13.9137244428
6	55	54	13.924771909455
6	56	55	13.950123941202
6	57	56	13.915996466407
6	58	57	13.925941982139
6	59	58	13.881943564357
6	60	59	13.992219979041
6	61	60	13.998597038973
6	62	61	13.874225773131
6	63	62	13.871739098215
6	64	63	13.928694565166
6	65	64	13.975976315038
6	66	65	13.898751937284
6	67	66	13.871158400744
6	68	67	13.931142031602
6	69	68	13.871678100268
6	70	69	13.982209371617
6	71	70	13.925930872245
6	72	71	13.946668972634
6	73	72	13.921497817454
6	74	73	12.284853764238
6	75	74	9.0121437214081
6	76	75	6.1130176202615
6	78	76	1.6130176202615
6	79	77	0
6	80	78	0
6	81	79	0
6	82	80	0
6	83	81	0
6	84	82	0
6	85	83	0
6	86	84	0
6	87	85	0
6	88	86	0
6	207	87	0
6	208	88	0
6	1961	89	0
6	1962	90	0
6	4268	91	0
6	4269	92	0
6	5258	93	0
6	5259	94	0
6	5385	95	0
6	5386	96	0
6	5508	97	0
6	5509	98	0
6	5510	99	0
6	5511	100	0
6	5512	101	0
6	5513	102	0
6	5514	103	0
6	5515	104	0
6	5516	105	0
6	5518	106	0
6	5519	107	0
6	5520	108	0
6	5521	109	0
6	5522	110	0
6	5523	111	0
6	5524	112	0
6	5525	113	0
6	5526	114	0
6	5527	115	0
6	5528	116	0
6	5529	117	0
6	5530	118	0
6	5531	119	0
6	5532	120	0
6	5533	121	0
6	5534	122	0
6	5535	123	0
6	5536	124	0
6	5537	125	0
6	5539	126	2.2246102428935
6	5540	127	4.8246102428935
6	5541	128	6.6807023293023
6	5542	129	8.5718213334852
6	5729	130	10.574762888691
6	5730	131	12.442120658754
6	7557	132	13.987335655855
6	7558	133	13.939989822153
6	7746	134	13.956251637503
6	7747	135	13.883844361224
6	7936	136	13.998206185109
6	7937	137	13.871639825071
6	7938	138	13.917562734738
6	7939	139	13.947158001943
6	7940	140	13.914409825786
6	7941	141	13.979782667474
6	7942	142	13.884789116071
6	7943	143	13.934817439595
6	7944	144	13.944697211026
6	7945	145	13.996836084912
6	7946	146	13.992615306694
6	7947	147	13.870364688039
6	7948	148	13.952726770383
6	7949	149	13.881764746134
6	7950	150	13.954499414181
6	7951	151	13.898427598283
6	7952	152	13.957856705091
6	7953	153	13.928087334568
6	7954	154	13.935877542337
6	7955	155	13.926629195642
6	7957	156	13.988658835683
6	7958	157	13.978625319814
6	7959	158	13.887087151045
6	7960	159	13.895993567049
6	7961	160	13.906322989657
6	7962	161	13.971738061388
6	7963	162	13.917480717946
6	7964	163	13.894752464972
6	7965	164	13.973524579818
6	7966	165	13.880455955039
6	7968	166	13.954952583315
6	7969	167	13.882738377999
6	7970	168	13.95417649481
6	7971	169	13.904171419307
6	7972	170	13.983324209559
6	7973	171	13.899876450689
6	7974	172	13.980879556229
6	7975	173	13.921090267771
6	7976	174	13.894565292483
6	7977	175	13.986814347405
6	7978	176	13.881257227717
6	7979	177	13.936937010966
6	7980	178	13.918408215987
6	7981	179	13.87747439408
6	7982	180	13.886993307855
6	7983	181	13.996628830947
6	7984	182	13.952229333839
6	7985	183	13.961040044869
6	7986	184	13.933807096176
6	7987	185	13.971973435883
6	7989	186	13.94937915073
6	7990	187	13.927020179476
6	7991	188	13.87954761412
6	7992	189	13.970133324205
6	7993	190	13.968908389742
6	7994	191	13.891309068943
6	7995	192	13.985148881932
6	7996	193	13.948220382896
6	7997	194	13.913687631453
6	7998	195	13.912768095224
6	8000	196	13.946417484221
6	8001	197	13.898835234139
6	8002	198	13.953501856958
6	8003	199	13.974500483265
6	8004	200	13.975393463999
5	2	1	1578.4416120471
5	3	2	1578.4416120471
5	4	3	1579.4966245294
5	5	4	1581.2776015159
5	6	5	1586.1653365986
5	7	6	1592.3755327258
5	8	7	1599.9554281235
5	9	8	1608.9150987137
5	10	9	1618.7330828821
5	11	10	1628.5774648814
5	12	11	1638.4196562562
5	13	12	1648.4360301802
5	14	13	1660.0725704357
5	15	14	1672.8800310632
5	16	15	1681.6922949329
5	17	16	1690.9525972893
5	18	17	1695.3639500989
5	19	18	1697.2011958091
5	20	19	1698.541036698
5	21	20	1699.5699112993
5	22	21	1700.3040461661
5	23	22	1700.7837737445
5	24	23	1701.0583376894
5	25	24	1703.8447521525
5	26	25	1712.0460333815
5	27	26	1722.1372181661
5	28	27	1734.0981961433
5	29	28	1747.6328665474
5	30	29	1761.4906543829
5	31	30	1775.4009959176
5	32	31	1789.2945122393
5	33	32	1803.1846920336
5	34	33	1817.0826861728
5	35	34	1830.9873044016
5	36	35	1844.8958232021
5	37	36	1858.787373418
5	38	37	1872.6706152447
5	39	38	1886.5527931787
5	40	39	1900.4314930569
5	41	40	1914.3205429167
5	42	41	1928.2196500115
5	43	42	1942.0989239831
5	44	43	1955.9945893753
5	45	44	1969.8811024986
5	46	45	1983.7780732056
5	47	46	1997.6460498739
5	48	47	2011.5499500362
5	49	48	2025.4136744449
5	50	49	2039.3004943542
5	51	50	2053.1822455181
5	52	51	2067.0851366306
5	53	52	2080.9781504953
5	54	53	2094.8620636659
5	55	54	2107.5958017986
5	56	55	2116.50443774
5	57	56	2120.966550488
5	58	57	2120.4964137897
5	59	58	2120.0263004107
5	60	59	2119.5562957739
5	61	60	2119.0856129043
5	62	61	2118.6154833902
5	63	62	2118.1451617796
5	64	63	2117.6747573502
5	65	64	2117.2052744217
5	66	65	2116.7349278545
5	67	66	2116.2643479006
5	68	67	2115.7947104117
5	69	68	2114.7714226404
5	70	69	2112.8172696698
5	71	70	2110.6040639561
5	72	71	2106.1301952414
5	73	72	2101.6563989418
5	74	73	2096.5653671324
5	75	74	2089.751967214
5	76	75	2084.4639622094
5	78	76	2080.7223480865
5	79	77	2078.8767545735
5	80	78	2078.7682388239
5	81	79	2078.7682388239
5	82	80	2078.7682388239
5	83	81	2078.7682388239
5	84	82	2078.7682388239
5	85	83	2078.7682388239
5	86	84	2078.7682388239
5	87	85	2078.7682388239
5	88	86	2078.7682388239
5	207	87	2078.7682388239
5	208	88	2078.7682388239
5	1961	89	2078.7682388239
5	1962	90	2078.7682388239
5	4268	91	2078.7682388239
5	4269	92	2078.7682388239
5	5258	93	2078.7682388239
5	5259	94	2078.7682388239
5	5385	95	2078.7682388239
5	5386	96	2078.7682388239
5	5508	97	2078.7682388239
5	5509	98	2078.7682388239
5	5510	99	2078.7682388239
5	5511	100	2078.7682388239
5	5512	101	2078.7682388239
5	5513	102	2078.7682388239
5	5514	103	2078.7682388239
5	5515	104	2078.7682388239
5	5516	105	2078.7682388239
5	5518	106	2078.7682388239
5	5519	107	2078.7682388239
5	5520	108	2078.7682388239
5	5521	109	2078.7682388239
5	5522	110	2078.7682388239
5	5523	111	2078.7682388239
5	5524	112	2078.7682388239
5	5525	113	2078.7682388239
5	5526	114	2078.7682388239
5	5527	115	2078.7682388239
5	5528	116	2078.7682388239
5	5529	117	2078.7682388239
5	5530	118	2078.7682388239
5	5531	119	2078.7682388239
5	5532	120	2078.7682388239
5	5533	121	2078.7682388239
5	5534	122	2078.7682388239
5	5535	123	2078.7682388239
5	5536	124	2078.7682388239
5	5537	125	2078.7682388239
5	5539	126	2078.7682388239
5	5540	127	2078.1200756226
5	5541	128	2076.266064547
5	5542	129	2072.524147396
5	5729	130	2066.9082729267
5	5730	131	2059.8694373518
5	7557	132	2051.3993829275
5	7558	133	2041.6015283167
5	7746	134	2031.4327510977
5	7747	135	2021.2562221447
5	7936	136	2011.091735648
5	7937	137	2000.9184145117
5	7938	138	1990.7380668353
5	7939	139	1980.5728782639
5	7940	140	1970.7540723672
5	7941	141	1961.0436769444
5	7942	142	1951.3182659429
5	7943	143	1941.5988711622
5	7944	144	1931.8843234414
5	7945	145	1922.1739454586
5	7946	146	1912.4550083335
5	7947	147	1902.7359445356
5	7948	148	1893.0334462393
5	7949	149	1883.3114148481
5	7950	150	1873.6109278435
5	7951	151	1863.6885760361
5	7952	152	1853.7136600092
5	7953	153	1843.7459109053
5	7954	154	1833.7757189637
5	7955	155	1823.7988947695
5	7957	156	1813.8195271324
5	7958	157	1803.8542115903
5	7959	158	1793.8740316294
5	7960	159	1783.9132603649
5	7961	160	1773.9392837919
5	7962	161	1764.10464371
5	7963	162	1754.5026758835
5	7964	163	1744.9111640882
5	7965	164	1735.2142778011
5	7966	165	1725.4535561502
5	7968	166	1715.7033108054
5	7969	167	1705.9411151195
5	7970	168	1696.1950240843
5	7971	169	1686.4443039186
5	7972	170	1676.6916164979
5	7973	171	1666.9293998135
5	7974	172	1657.1827235129
5	7975	173	1647.4362509307
5	7976	174	1637.6676470283
5	7977	175	1627.912595463
5	7978	176	1618.1507462636
5	7979	177	1608.4062000373
5	7980	178	1598.6479374506
5	7981	179	1588.8883381812
5	7982	180	1579.1462210333
5	7983	181	1569.3960218802
5	7984	182	1559.6384944571
5	7985	183	1549.9153201748
5	7986	184	1540.000423748
5	7987	185	1530.0992069338
5	7989	186	1520.1976672588
5	7990	187	1510.2828829326
5	7991	188	1500.3775456846
5	7992	189	1490.8953137714
5	7993	190	1481.760228972
5	7994	191	1472.6310520954
5	7995	192	1463.5070431512
5	7996	193	1454.3674433995
5	7997	194	1445.516599264
5	7998	195	1437.4769164557
5	8000	196	1429.4406612348
5	8001	197	1421.3967398806
5	8002	198	1413.3508736966
5	8003	199	1406.0441085706
5	8004	200	1400.0888727028
4	2	1	2414.9014220152
4	3	2	2414.9014220152
4	4	3	2412.0282535021
4	5	4	2407.434272861
4	6	5	2402.6086066293
4	7	6	2396.4772731521
4	8	7	2388.9936340754
4	9	8	2380.1477414317
4	10	9	2370.4544348472
4	11	10	2360.735065655
4	12	11	2351.0178592684
4	13	12	2341.5298487653
4	14	13	2334.7235384902
4	15	14	2336.8243788907
4	16	15	2347.473535693
4	17	16	2357.7419379568
4	18	17	2370.3022435491
4	19	18	2383.9995112187
4	20	19	2397.5196581341
4	21	20	2408.4006939746
4	22	21	2416.1646603449
4	23	22	2421.2380997778
4	24	23	2425.4024470274
4	25	24	2430.5642199855
4	26	25	2431.857510546
4	27	26	2433.3910067528
4	28	27	2435.2086441015
4	29	28	2437.2654259532
4	30	29	2438.6622200004
4	31	30	2439.5314866065
4	32	31	2440.5417792661
4	33	32	2441.5518293041
4	34	33	2442.5624475764
4	35	34	2443.5735475319
4	36	35	2444.5849311245
4	37	36	2445.5950808151
4	38	37	2446.6046263459
4	39	38	2447.6140945138
4	40	39	2448.6233097685
4	41	40	2449.6332776411
4	42	41	2450.6439768443
4	43	42	2449.5656488632
4	44	43	2448.4523300367
4	45	44	2447.3397444888
4	46	45	2446.2263210806
4	47	46	2445.1152206709
4	48	47	2444.0012420758
4	49	48	2442.8904823567
4	50	49	2441.777872229
4	51	50	2440.6656682086
4	52	51	2439.6989606298
4	53	52	2438.7586376385
4	54	53	2437.8656483651
4	55	54	2432.7589399592
4	56	55	2422.3179143567
4	57	56	2409.1878704632
4	58	57	2395.2685581594
4	59	58	2381.3499362882
4	60	59	2367.4345339072
4	61	60	2353.4990511541
4	62	61	2339.5799515581
4	63	62	2325.6551645531
4	64	63	2311.7279255744
4	65	64	2297.8279693802
4	66	65	2283.9024435012
4	67	66	2269.9700077686
4	68	67	2256.0654755381
4	69	68	2242.2022168655
4	70	69	2228.4219174191
4	71	70	2214.6856643925
4	72	71	2201.4943822231
4	73	72	2188.3033135722
4	74	73	2175.3852950842
4	75	74	2163.8113479719
4	76	75	2154.8285947237
4	78	76	2148.4727012644
4	79	77	2145.3375848804
4	80	78	2145.153248784
4	81	79	2145.153248784
4	82	80	2145.153248784
4	83	81	2145.153248784
4	84	82	2145.153248784
4	85	83	2145.153248784
4	86	84	2145.153248784
4	87	85	2145.153248784
4	88	86	2145.153248784
4	207	87	2145.153248784
4	208	88	2145.153248784
4	1961	89	2145.153248784
4	1962	90	2145.153248784
4	4268	91	2145.153248784
4	4269	92	2145.153248784
4	5258	93	2145.153248784
4	5259	94	2145.153248784
4	5385	95	2145.153248784
4	5386	96	2145.153248784
4	5508	97	2145.153248784
4	5509	98	2145.153248784
4	5510	99	2145.153248784
4	5511	100	2145.153248784
4	5512	101	2145.153248784
4	5513	102	2145.153248784
4	5514	103	2145.153248784
4	5515	104	2145.153248784
4	5516	105	2145.153248784
4	5518	106	2145.153248784
4	5519	107	2145.153248784
4	5520	108	2145.153248784
4	5521	109	2145.153248784
4	5522	110	2145.153248784
4	5523	111	2145.153248784
4	5524	112	2145.153248784
4	5525	113	2145.153248784
4	5526	114	2145.153248784
4	5527	115	2145.153248784
4	5528	116	2145.153248784
4	5529	117	2145.153248784
4	5530	118	2145.153248784
4	5531	119	2145.153248784
4	5532	120	2145.153248784
4	5533	121	2145.153248784
4	5534	122	2145.153248784
4	5535	123	2145.153248784
4	5536	124	2145.153248784
4	5537	125	2145.153248784
4	5539	126	2145.153248784
4	5540	127	2144.0522116066
4	5541	128	2140.9027962806
4	5542	129	2136.4203968695
4	5729	130	2131.1596300402
4	5730	131	2124.565879965
4	7557	132	2116.6314110588
4	7558	133	2107.4531025311
4	7746	134	2097.9273258814
4	7747	135	2088.3942876623
4	7936	136	2078.8725304208
4	7937	137	2069.3424971786
4	7938	138	2059.8058817044
4	7939	139	2050.2834667827
4	7940	140	2040.4000731398
4	7941	141	2030.4109709992
4	7942	142	2020.4064223041
4	7943	143	2010.4080625069
4	7944	144	2000.4146888892
4	7945	145	1990.4256046889
4	7946	146	1980.4277156831
4	7947	147	1970.4296963677
4	7948	148	1960.4487180164
4	7949	149	1950.4476459328
4	7950	150	1940.4687366004
4	7951	151	1930.6426809123
4	7952	152	1920.9085885452
4	7953	153	1911.1814900718
4	7954	154	1901.4520077374
4	7955	155	1891.7160532729
4	7957	156	1881.9776167717
4	7958	157	1872.2528931065
4	7959	158	1862.5136638925
4	7960	159	1852.7933747931
4	7961	160	1843.0601992001
4	7962	161	1833.2129185686
4	7963	162	1823.1028711564
4	7964	163	1813.003833046
4	7965	164	1802.9907706064
4	7966	165	1793.030977844
4	7968	166	1783.0818750543
4	7969	167	1773.1205781947
4	7970	168	1763.1757144413
4	7971	169	1753.2261271459
4	7972	170	1743.2745324739
4	7973	171	1733.3132141868
4	7974	172	1723.3677532324
4	7975	173	1713.4225001502
4	7976	174	1703.454664378
4	7977	175	1693.5006573432
4	7978	176	1683.5397140367
4	7979	177	1673.5964265992
4	7980	178	1663.6391430544
4	7981	179	1653.6804955652
4	7982	180	1643.7396867473
4	7983	181	1633.7906310915
4	7984	182	1623.8340977043
4	7985	183	1614.0088915782
4	7986	184	1604.1868505806
4	7987	185	1594.3783610832
4	7989	186	1584.5695517481
4	7990	187	1574.7476218013
4	7991	188	1564.9350504592
4	7992	189	1554.7236352778
4	7993	190	1544.1629092642
4	7994	191	1533.6090131778
4	7995	192	1523.0610915428
4	7996	193	1512.4951459644
4	7997	194	1501.7178411853
4	7998	195	1490.3095189948
4	8000	196	1478.9060605544
4	8001	197	1467.4917238593
4	8002	198	1456.074627449
4	8003	199	1444.2623097691
4	8004	200	1431.6308251878
15	7	6	4.2301091069722
15	8	7	5.4083752898229
15	9	8	6.4569285084612
15	10	9	6.9981297601067
15	11	10	8.3312879690391
15	12	11	2.4141445356829
15	13	12	2.1874061765078
15	14	13	1.8382242624125
15	15	14	2.0343893016141
15	16	15	1.9593955015171
15	17	16	2.2876002045415
15	18	17	1.6630794257514
15	19	18	2.3307419132725
15	20	19	2.0570318190542
15	21	20	0.973
15	22	21	0.973
15	23	22	0.973
15	24	23	0.973
15	25	24	0.973
15	26	25	0.973
15	27	26	5.0298054635758
15	28	27	5.3387626171002
15	29	28	6.0992411196982
15	30	29	7.6689071873388
15	31	30	7.6953946644296
15	32	31	2.2138015462716
15	33	32	1.8297571526508
15	34	33	1.9617299658648
15	35	34	2.2952115578408
15	36	35	2.0616520584725
15	37	36	1.754348913972
15	38	37	2.0877151155648
15	39	38	1.9439382944776
15	40	39	2.2854708098026
15	41	40	1.8636906702153
15	42	41	2.3542075109855
15	43	42	2.0212017762597
15	44	43	1.9852732682006
15	45	44	2.0501312890771
15	46	45	1.7295064557081
15	47	46	2.1721049310558
15	48	47	2.0260253266059
15	49	48	2.1004165056056
15	50	49	2.1222972100305
15	51	50	1.7195426961875
15	52	51	2.1943406010272
15	53	52	2.2204838817958
15	54	53	1.7147641271474
15	55	54	2.1203351901188
15	56	55	2.19090230073
15	57	56	2.0926411604769
15	58	57	1.8907404194004
15	59	58	1.897294422508
15	60	59	2.1444220061647
15	61	60	2.2027721979195
15	62	61	2.0010986474578
15	63	62	1.9645049360925
15	64	63	2.186888723854
15	65	64	1.9083002968928
15	66	65	2.1406602496428
15	67	66	1.799153459795
15	68	67	2.2212608375083
15	69	68	1.9495279777307
15	70	69	1.8852368861481
15	71	70	1.9890193069286
15	72	71	1.987796202425
15	73	72	2.1930331348408
15	74	73	2.2051001228538
15	75	74	1.9661718581163
15	76	75	1.9298795222038
15	78	76	0.973
15	79	77	0.973
15	80	78	0.973
15	81	79	0.973
15	82	80	0.973
15	83	81	0.973
15	84	82	0.973
15	85	83	0.973
15	86	84	0.973
15	87	85	0.973
15	88	86	0.973
15	207	87	0.973
15	208	88	0.973
15	1961	89	0.973
15	1962	90	0.973
15	4268	91	0.973
15	4269	92	0.973
15	5258	93	0.973
15	5259	94	0.973
15	5385	95	0.973
15	5386	96	0.973
15	5508	97	0.973
15	5509	98	0.973
15	5510	99	0.973
15	5511	100	0.973
15	5512	101	0.973
15	5513	102	0.973
15	5514	103	0.973
15	5515	104	0.973
15	5516	105	0.973
15	5518	106	0.973
15	5519	107	0.973
15	5520	108	0.973
15	5521	109	0.973
15	5522	110	0.973
15	5523	111	0.973
15	5524	112	0.973
15	5525	113	0.973
15	5526	114	0.973
15	5527	115	0.973
15	5528	116	0.973
15	5529	117	0.973
15	5530	118	0.973
15	5531	119	0.973
15	5532	120	0.973
15	5533	121	0.973
15	5534	122	0.973
15	5535	123	0.973
15	5536	124	0.973
15	5537	125	0.973
15	5539	126	1.3631976180827
15	5540	127	2.6860366465989
15	5541	128	1.6817952736254
15	5542	129	5.0268986901217
15	5729	130	5.4368389814085
15	5730	131	6.7210484905568
15	7557	132	7.694642606367
15	7558	133	8.1705973425478
15	7746	134	2.3346173145876
15	7747	135	1.6993496526726
15	7936	136	2.0208465247618
15	7937	137	2.3748548109116
15	7938	138	1.6497843170806
15	7939	139	2.3793424968489
15	7940	140	1.9216199881329
15	7941	141	2.1975633147567
15	7942	142	1.9540544842636
15	7943	143	1.7136191384954
15	7944	144	2.4610255319078
15	7945	145	1.8083089345069
15	7946	146	2.153655299416
15	7947	147	2.082736503218
15	7948	148	1.6779174465943
15	7949	149	2.3357229587957
15	7950	150	2.0390627368016
15	7951	151	1.7085150458506
15	7952	152	2.2817910303295
15	7953	153	2.2131798131429
15	7954	154	1.7028818123344
15	7955	155	2.2277740074734
15	7957	156	1.8033553176747
15	7958	157	2.1389979132213
15	7959	158	2.2210617300063
15	7960	159	1.8245441998536
15	7961	160	2.013151286789
15	7962	161	2.3296096352085
15	7963	162	1.6618643600514
15	7964	163	2.1619013108312
15	7965	164	1.9449602130795
15	7966	165	1.9490582846931
15	7968	166	2.3932886565501
15	7969	167	1.8857045184369
15	7970	168	2.1696741393275
15	7971	169	2.018013845
15	7972	170	1.8381171012985
15	7973	171	2.0299637940969
15	7974	172	2.2891918591283
15	7975	173	1.9318970989814
15	7976	174	1.7954313125162
15	7977	175	2.3281517700624
15	7978	176	1.679115581854
15	7979	177	2.4166532776896
15	7980	178	1.8173208541888
15	7981	179	2.0348909772901
15	7982	180	2.0580566080594
15	7983	181	1.9773992825341
15	7984	182	2.0586194280271
15	7985	183	2.0891470190924
15	7986	184	1.9816210504835
15	7987	185	2.1908256330978
15	7989	186	1.8420819003082
15	7990	187	2.0085786700786
15	7991	188	2.0064858104365
15	7992	189	1.9561424835442
15	7993	190	2.0100053489025
15	7994	191	2.3086832512815
15	7995	192	1.7383196097801
15	7996	193	2.1527532510822
15	7997	194	2.0916121140371
15	7998	195	1.837401515216
15	8000	196	2.2840532334992
15	8001	197	2.0036091639584
15	8002	198	2.2127653892913
15	8003	199	1.962528885755
15	8004	200	1.7477931859519
14	7	6	1.9474421001598
14	8	7	2.0059184591635
14	9	8	1.9846240851143
14	10	9	1.8173657322512
14	11	10	1.9131545290095
14	12	11	0.11784023580519
14	13	12	0.048173203465995
14	14	13	-0.054790777366142
14	15	14	0.0039751141518352
14	16	15	-0.018007996121888
14	17	16	0.077808754814324
14	18	17	-0.10640377648408
14	19	18	0.091259598622564
14	20	19	0.0090987256960933
14	21	20	-0.89915141704996
14	22	21	-2.5765247842278
14	23	22	-1.5617496826214
14	24	23	-1.6316359462101
14	25	24	-2.6026178634216
14	26	25	-0.23096030431261
14	27	26	2.240684374969
14	28	27	1.8455726963351
14	29	28	1.78050019952
14	30	29	1.970705549533
14	31	30	1.6907719809701
14	32	31	0.053259000824763
14	33	32	-0.0593537736102
14	34	33	-0.019394498721232
14	35	34	0.077503505891656
14	36	35	0.0078275678446502
14	37	36	-0.08148419994628
14	38	37	0.017589079025202
14	39	38	-0.024622079397087
14	40	39	0.074817628990859
14	41	40	-0.049302461256739
14	42	41	0.093614317842293
14	43	42	-0.0049621417489831
14	44	43	-0.015173091564794
14	45	44	0.003961388256867
14	46	45	-0.089072878758888
14	47	46	0.041741832238621
14	48	47	-0.0017116748774431
14	49	48	0.019815375730396
14	50	49	0.025501057012008
14	51	50	-0.091893632488791
14	52	51	0.048361579561606
14	53	52	0.05428304580273
14	54	53	-0.093537181308493
14	55	54	0.026726024830714
14	56	55	0.046201348118485
14	57	56	0.016487142750993
14	58	57	-0.042271767123601
14	59	58	-0.039240699366202
14	60	59	0.03342690848047
14	61	60	0.049132931581697
14	62	61	-0.010400795512831
14	63	62	-0.020670054752847
14	64	63	0.043986489532982
14	65	64	-0.037562610358
14	66	65	0.030511548989454
14	67	66	-0.069028196809814
14	68	67	0.054902462563478
14	69	68	-0.025059687276372
14	70	69	-0.043009790068027
14	71	70	-0.011700205802917
14	72	71	-0.011719390831422
14	73	72	0.047990855693351
14	74	73	0.049887266790028
14	75	74	-0.020428126633632
14	76	75	-0.03035865865415
14	78	76	-3.1488054835454
14	79	77	-3.0385916171276
14	80	78	-2.7588850870054
14	81	79	-2.1060610180613
14	82	80	-1.5163701279747
14	83	81	-0.78136303662007
14	84	82	-0.14940809831645
14	85	83	-0.43167675860343
14	86	84	0
14	87	85	0
14	88	86	0
14	207	87	0
14	208	88	0
14	1961	89	0
14	1962	90	0
14	4268	91	0
14	4269	92	0
14	5258	93	0
14	5259	94	0
14	5385	95	0
14	5386	96	0
14	5508	97	0
14	5509	98	0
14	5510	99	0
14	5511	100	0
14	5512	101	0
14	5513	102	0
14	5514	103	0
14	5515	104	0
14	5516	105	0
14	5518	106	0
14	5519	107	0
14	5520	108	0
14	5521	109	0
14	5522	110	0
14	5523	111	0
14	5524	112	0
14	5525	113	0
14	5526	114	0
14	5527	115	0
14	5528	116	0
14	5529	117	0
14	5530	118	0
14	5531	119	0
14	5532	120	0
14	5533	121	0
14	5534	122	0
14	5535	123	0
14	5536	124	0
14	5537	125	0
14	5539	126	0.92963598744843
14	5540	127	2.0163394937215
14	5541	128	0.48653114682569
14	5542	129	2.5177087037545
14	5729	130	2.0262722509284
14	5730	131	2.076951830287
14	7557	132	2.0091022460302
14	7558	133	1.8340335993132
14	7746	134	0.088219181266615
14	7747	135	-0.097988042361104
14	7936	136	-0.0018682719813654
14	7937	137	0.10014698617393
14	7938	138	-0.11248190266546
14	7939	139	0.10187790894648
14	7940	140	-0.03310500856489
14	7941	141	0.04741919633234
14	7942	142	-0.024119884998072
14	7943	143	-0.093358118126636
14	7944	144	0.12526141209994
14	7945	145	-0.066539557350334
14	7946	146	0.035170682584866
14	7947	147	0.013670053051319
14	7948	148	-0.10411653909832
14	7949	149	0.089308921298944
14	7950	150	0.0011230985587467
14	7951	151	-0.094861766146497
14	7952	152	0.073987705516629
14	7953	153	0.051801468499471
14	7954	154	-0.097215745737776
14	7955	155	0.057496817435602
14	7957	156	-0.066978109288028
14	7958	157	0.032237475577276
14	7959	158	0.054811907354743
14	7960	159	-0.06131706496468
14	7961	160	-0.0049281180230896
14	7962	161	0.08630394617794
14	7963	162	-0.10920051499037
14	7964	163	0.038911811814177
14	7965	164	-0.025012190483976
14	7966	165	-0.023125382238067
14	7968	166	0.10566607895074
14	7969	167	-0.043757488415578
14	7970	168	0.039456234651153
14	7971	169	-0.0053975355857983
14	7972	170	-0.057311906267424
14	7973	171	-0.00010822163196345
14	7974	172	0.074513422588353
14	7975	173	-0.030588116666769
14	7976	174	-0.069390147502999
14	7977	175	0.086558528281747
14	7978	176	-0.1037409145711
14	7979	177	0.11249414579244
14	7980	178	-0.063669155742973
14	7981	179	0.0011379051720724
14	7982	180	0.0077998632867811
14	7983	181	-0.01576190188527
14	7984	182	0.008201620646286
14	7985	183	0.016768686152064
14	7986	184	-0.014801385772881
14	7987	185	0.045980718550272
14	7989	186	-0.056110908724367
14	7990	187	-0.0062783119664527
14	7991	188	-0.0067022539116444
14	7992	189	-0.021118161173071
14	7993	190	-0.0048720179195527
14	7994	191	0.081474161630032
14	7995	192	-0.085999218984508
14	7996	193	0.036745522869751
14	7997	194	0.017937543757725
14	7998	195	-0.056320039818528
14	8000	196	0.074617592669092
14	8001	197	-0.0085710955061948
14	8002	198	0.051925357959698
14	8003	199	-0.021674993974155
14	8004	200	-0.083439164760058
13	6	5	4.0425376740037
13	7	6	5.9899797741635
13	8	7	7.995898233327
13	9	8	9.9805223184414
13	10	9	11.797888050693
13	11	10	13.711042579702
13	12	11	13.828882815507
13	13	12	13.877056018973
13	14	13	13.822265241607
13	15	14	13.826240355759
13	16	15	13.808232359637
13	17	16	13.886041114451
13	18	17	13.779637337967
13	19	18	13.87089693659
13	20	19	13.879995662286
13	21	20	12.980844245236
13	22	21	10.404319461008
13	23	22	8.8425697783867
13	24	23	7.2109338321766
13	25	24	4.608315968755
13	26	25	4.3773556644424
13	27	26	6.6180400394114
13	28	27	8.4636127357465
13	29	28	10.244112935267
13	30	29	12.2148184848
13	31	30	13.90559046577
13	32	31	13.958849466594
13	33	32	13.899495692984
13	34	33	13.880101194263
13	35	34	13.957604700155
13	36	35	13.965432267999
13	37	36	13.883948068053
13	38	37	13.901537147078
13	39	38	13.876915067681
13	40	39	13.951732696672
13	41	40	13.902430235415
13	42	41	13.996044553258
13	43	42	13.991082411509
13	44	43	13.975909319944
13	45	44	13.979870708201
13	46	45	13.890797829442
13	47	46	13.93253966168
13	48	47	13.930827986803
13	49	48	13.950643362533
13	50	49	13.976144419545
13	51	50	13.884250787057
13	52	51	13.932612366618
13	53	52	13.986895412421
13	54	53	13.893358231112
13	55	54	13.920084255943
13	56	55	13.966285604062
13	57	56	13.982772746813
13	58	57	13.940500979689
13	59	58	13.901260280323
13	60	59	13.934687188803
13	61	60	13.983820120385
13	62	61	13.973419324872
13	63	62	13.952749270119
13	64	63	13.996735759652
13	65	64	13.959173149294
13	66	65	13.989684698284
13	67	66	13.920656501474
13	68	67	13.975558964037
13	69	68	13.950499276761
13	70	69	13.907489486693
13	71	70	13.89578928089
13	72	71	13.884069890059
13	73	72	13.932060745752
13	74	73	13.981948012542
13	75	74	13.961519885908
13	76	75	13.931161227254
13	78	76	10.782355743709
13	79	77	7.7437641265813
13	80	78	4.9848790395759
13	81	79	2.8788180215146
13	82	80	1.3624478935399
13	83	81	0.58108485691988
13	84	82	0.43167675860343
13	85	83	0
13	86	84	0
13	87	85	0
13	88	86	0
13	207	87	0
13	208	88	0
13	1961	89	0
13	1962	90	0
13	4268	91	0
13	4269	92	0
13	5258	93	0
13	5259	94	0
13	5385	95	0
13	5386	96	0
13	5508	97	0
13	5509	98	0
13	5510	99	0
13	5511	100	0
13	5512	101	0
13	5513	102	0
13	5514	103	0
13	5515	104	0
13	5516	105	0
13	5518	106	0
13	5519	107	0
13	5520	108	0
13	5521	109	0
13	5522	110	0
13	5523	111	0
13	5524	112	0
13	5525	113	0
13	5526	114	0
13	5527	115	0
13	5528	116	0
13	5529	117	0
13	5530	118	0
13	5531	119	0
13	5532	120	0
13	5533	121	0
13	5534	122	0
13	5535	123	0
13	5536	124	0
13	5537	125	0
13	5539	126	0.92963598744843
13	5540	127	2.94597548117
13	5541	128	3.4325066279957
13	5542	129	5.9502153317501
13	5729	130	7.9764875826786
13	5730	131	10.053439412966
13	7557	132	12.062541658996
13	7558	133	13.896575258309
13	7746	134	13.984794439576
13	7747	135	13.886806397215
13	7936	136	13.884938125233
13	7937	137	13.985085111407
13	7938	138	13.872603208742
13	7939	139	13.974481117688
13	7940	140	13.941376109123
13	7941	141	13.988795305456
13	7942	142	13.964675420457
13	7943	143	13.871317302331
13	7944	144	13.996578714431
13	7945	145	13.93003915708
13	7946	146	13.965209839665
13	7947	147	13.978879892717
13	7948	148	13.874763353618
13	7949	149	13.964072274917
13	7950	150	13.965195373476
13	7951	151	13.87033360733
13	7952	152	13.944321312846
13	7953	153	13.996122781346
13	7954	154	13.898907035608
13	7955	155	13.956403853043
13	7957	156	13.889425743755
13	7958	157	13.921663219333
13	7959	158	13.976475126687
13	7960	159	13.915158061723
13	7961	160	13.9102299437
13	7962	161	13.996533889878
13	7963	162	13.887333374887
13	7964	163	13.926245186701
13	7965	164	13.901232996217
13	7966	165	13.878107613979
13	7968	166	13.98377369293
13	7969	167	13.940016204515
13	7970	168	13.979472439166
13	7971	169	13.97407490358
13	7972	170	13.916762997312
13	7973	171	13.916654775681
13	7974	172	13.991168198269
13	7975	173	13.960580081602
13	7976	174	13.891189934099
13	7977	175	13.977748462381
13	7978	176	13.87400754781
13	7979	177	13.986501693602
13	7980	178	13.922832537859
13	7981	179	13.923970443031
13	7982	180	13.931770306318
13	7983	181	13.916008404433
13	7984	182	13.924210025079
13	7985	183	13.940978711231
13	7986	184	13.926177325458
13	7987	185	13.972158044009
13	7989	186	13.916047135284
13	7990	187	13.909768823318
13	7991	188	13.903066569406
13	7992	189	13.881948408233
13	7993	190	13.877076390313
13	7994	191	13.958550551943
13	7995	192	13.872551332959
13	7996	193	13.909296855829
13	7997	194	13.927234399586
13	7998	195	13.870914359768
13	8000	196	13.945531952437
13	8001	197	13.936960856931
13	8002	198	13.988886214891
13	8003	199	13.967211220916
13	8004	200	13.883772056156
12	5	4	1578.4472822268
12	6	5	1578.4472822268
12	7	6	1579.5086799795
12	8	7	1581.463551742
12	9	8	1586.5215602648
12	10	9	1592.9907937236
12	11	10	1600.8370654397
12	12	11	1609.9987445669
12	13	12	1619.8356540762
12	14	13	1629.6860002102
12	15	14	1639.5136572961
12	16	15	1649.6652132459
12	17	16	1661.608180549
12	18	17	1673.8534141136
12	19	18	1682.7311922461
12	20	19	1692.0008722087
12	21	20	1695.5930600381
12	22	21	1697.3638825528
12	23	22	1698.4781867648
12	24	23	1699.3508925885
12	25	24	1700.1320105875
12	26	25	1700.6757637747
12	27	26	1700.9763333295
12	28	27	1702.0570003456
12	29	28	1709.2184885982
12	30	29	1718.486905667
12	31	30	1729.7221734524
12	32	31	1742.8166470975
12	33	32	1756.6257166937
12	34	33	1770.5424128035
12	35	34	1784.4431180377
12	36	35	1798.3453813354
12	37	36	1812.2489111917
12	38	37	1826.1338232355
12	39	38	1840.0052115899
12	40	39	1853.8865276687
12	41	40	1867.7613132671
12	42	41	1881.6495191753
12	43	42	1895.5577214556
12	44	43	1909.4568237681
12	45	44	1923.3535482474
12	46	45	1937.2407883173
12	47	46	1951.1177424677
12	48	47	1965.0138413142
12	49	48	1978.8952731136
12	50	49	1992.7971214326
12	51	50	2006.673840113
12	52	51	2020.5721973078
12	53	52	2034.4503232781
12	54	53	2048.3538283575
12	55	54	2062.237618464
12	56	55	2076.1422634898
12	57	56	2090.0447951443
12	58	57	2103.4108257322
12	59	58	2113.9630808383
12	60	59	2119.9180992302
12	61	60	2120.6601283913
12	62	61	2120.1890040431
12	63	62	2119.718827513
12	64	63	2119.2483964385
12	65	64	2118.7775251754
12	66	65	2118.3070764719
12	67	66	2117.8366521066
12	68	67	2117.3661412979
12	69	68	2116.8956251917
12	70	69	2116.4246807871
12	71	70	2115.9545613071
12	72	71	2115.4322686028
12	73	72	2113.4771187576
12	74	73	2111.517916047
12	75	74	2107.6334060756
12	76	75	2103.1587952022
12	78	76	2098.6837609811
12	79	77	2092.6927116383
12	80	78	2088.087683036
12	81	79	2084.9575338745
12	82	80	2083.0455236752
12	83	81	2082.0399566535
12	84	82	2081.5831478545
12	85	83	2081.3531477274
12	86	84	2081.3052834859
12	87	85	2081.3052834859
12	88	86	2081.3052834859
12	207	87	2081.3052834859
12	208	88	2081.3052834859
12	1961	89	2081.3052834859
12	1962	90	2081.3052834859
12	4268	91	2081.3052834859
12	4269	92	2081.3052834859
12	5258	93	2081.3052834859
12	5259	94	2081.3052834859
12	5385	95	2081.3052834859
12	5386	96	2081.3052834859
12	5508	97	2081.3052834859
12	5509	98	2081.3052834859
12	5510	99	2081.3052834859
12	5511	100	2081.3052834859
12	5512	101	2081.3052834859
12	5513	102	2081.3052834859
12	5514	103	2081.3052834859
12	5515	104	2081.3052834859
12	5516	105	2081.3052834859
12	5518	106	2081.3052834859
12	5519	107	2081.3052834859
12	5520	108	2081.3052834859
12	5521	109	2081.3052834859
12	5522	110	2081.3052834859
12	5523	111	2081.3052834859
12	5524	112	2081.3052834859
12	5525	113	2081.3052834859
12	5526	114	2081.3052834859
12	5527	115	2081.3052834859
12	5528	116	2081.3052834859
12	5529	117	2081.3052834859
12	5530	118	2081.3052834859
12	5531	119	2081.3052834859
12	5532	120	2081.3052834859
12	5533	121	2081.3052834859
12	5534	122	2081.3052834859
12	5535	123	2081.3052834859
12	5536	124	2081.3052834859
12	5537	125	2081.3052834859
12	5539	126	2081.3052834859
12	5540	127	2081.0638441248
12	5541	128	2080.0153974071
12	5542	129	2078.139345563
12	5729	130	2075.6323142657
12	5730	131	2070.7778678834
12	7557	132	2064.1456550863
12	7558	133	2055.9618116897
12	7746	134	2046.4253773773
12	7747	135	2036.2598196864
12	7936	136	2026.0855126344
12	7937	137	2015.905601521
12	7938	138	2005.730312122
12	7939	139	1995.5609422559
12	7940	140	1985.3786339052
12	7941	141	1975.3463739194
12	7942	142	1965.6366419662
12	7943	143	1955.9257707894
12	7944	144	1946.2183023794
12	7945	145	1936.4944408061
12	7946	146	1926.7849487113
12	7947	147	1917.0704023903
12	7948	148	1907.3567981068
12	7949	149	1897.6434873212
12	7950	150	1887.9190545566
12	7951	151	1878.1962696835
12	7952	152	1868.4139160393
12	7953	153	1858.4470912991
12	7954	154	1848.4661667198
12	7955	155	1838.4931078535
12	7957	156	1828.502170098
12	7958	157	1818.5420667967
12	7959	158	1808.5612646705
12	7960	159	1798.5988022368
12	7961	160	1788.6264103316
12	7962	161	1778.6717865923
12	7963	162	1768.6932074437
12	7964	163	1759.042962891
12	7965	164	1749.4434632529
12	7966	165	1739.8278801003
12	7968	166	1730.0789860468
12	7969	167	1720.3286126759
12	7970	168	1710.5738902204
12	7971	169	1700.8122589486
12	7972	170	1691.0551418923
12	7973	171	1681.2930759238
12	7974	172	1671.543768703
12	7975	173	1661.7869498404
12	7976	174	1652.0128652621
12	7977	175	1642.2546215942
12	7978	176	1632.498144988
12	7979	177	1622.7473115381
12	7980	178	1612.989546556
12	7981	179	1603.2354215505
12	7982	180	1593.4777647434
12	7983	181	1583.7294022096
12	7984	182	1573.9776748922
12	7985	183	1564.2227325644
12	7986	184	1554.4618452666
12	7987	185	1547.0201483155
12	7989	186	1537.1270986022
12	7990	187	1527.2286744732
12	7991	188	1517.3535874858
12	7992	189	1507.4730835166
12	7993	190	1497.6425909633
12	7994	191	1488.5277078226
12	7995	192	1479.4307560204
12	7996	193	1470.3314347109
12	7997	194	1461.2355534257
12	7998	195	1452.1267471714
12	8000	196	1441.2640838409
12	8001	197	1433.2188847754
12	8002	198	1425.1727996888
12	8003	199	1417.1217298172
12	8004	200	1409.0878668679
11	5	4	2414.8859801291
11	6	5	2414.8859801291
11	7	6	2411.9954222892
11	8	7	2407.2506839979
11	9	8	2402.2569066116
11	10	9	2395.8698252906
11	11	10	2388.1231925822
11	12	11	2379.0778566878
11	13	12	2369.3658650925
11	14	13	2359.6406075037
11	15	14	2349.9377508366
11	16	15	2340.5696662485
11	17	16	2334.4685549028
11	18	17	2338.029717051
11	19	18	2348.6255299923
11	20	19	2358.9043307323
11	21	20	2371.8350753159
11	22	21	2385.3663703802
11	23	22	2396.8549781273
11	24	23	2406.0844248855
11	25	24	2414.3452692438
11	26	25	2420.0958222281
11	27	26	2423.9862948015
11	28	27	2429.4993003103
11	29	28	2431.427825698
11	30	29	2432.8362908805
11	31	30	2434.5436464486
11	32	31	2436.5335342661
11	33	32	2438.3299803259
11	34	33	2439.1886723154
11	35	34	2440.1890011905
11	36	35	2441.1999299027
11	37	36	2442.2109507151
11	38	37	2443.2206176987
11	39	38	2444.2293012826
11	40	39	2445.238706779
11	41	40	2446.2476373996
11	42	41	2447.2575439028
11	43	42	2448.2689044791
11	44	43	2449.2796033344
11	45	44	2450.2901292811
11	46	45	2449.9548820338
11	47	46	2448.8430623495
11	48	47	2447.7297087947
11	49	48	2446.6175303617
11	50	49	2445.50371616
11	51	50	2444.3919153415
11	52	51	2443.2783808481
11	53	52	2442.1664672778
11	54	53	2441.0525203367
11	55	54	2440.0270559463
11	56	55	2439.0859457215
11	57	56	2438.5427623577
11	58	57	2435.2747637217
11	59	58	2426.4685505354
11	60	59	2413.9258769645
11	61	60	2400.1156476981
11	62	61	2386.1670940989
11	63	62	2372.2466024841
11	64	63	2358.318574614
11	65	64	2344.3775140973
11	66	65	2330.4489642661
11	67	66	2316.5211350349
11	68	67	2302.5907464555
11	69	68	2288.6602010678
11	70	69	2274.7169750297
11	71	70	2260.7981725226
11	72	71	2246.862371614
11	73	72	2233.0750424088
11	74	73	2219.2591332041
11	75	74	2205.926626337
11	76	75	2192.7331559004
11	78	76	2179.5384372135
11	79	77	2168.8068011735
11	80	78	2160.9842224129
11	81	79	2155.6670266984
11	82	80	2152.4190880489
11	83	81	2150.7109277087
11	84	82	2149.9349449468
11	85	83	2149.5442428981
11	86	84	2149.4629357386
11	87	85	2149.4629357386
11	88	86	2149.4629357386
11	207	87	2149.4629357386
11	208	88	2149.4629357386
11	1961	89	2149.4629357386
11	1962	90	2149.4629357386
11	4268	91	2149.4629357386
11	4269	92	2149.4629357386
11	5258	93	2149.4629357386
11	5259	94	2149.4629357386
11	5385	95	2149.4629357386
11	5386	96	2149.4629357386
11	5508	97	2149.4629357386
11	5509	98	2149.4629357386
11	5510	99	2149.4629357386
11	5511	100	2149.4629357386
11	5512	101	2149.4629357386
11	5513	102	2149.4629357386
11	5514	103	2149.4629357386
11	5515	104	2149.4629357386
11	5516	105	2149.4629357386
11	5518	106	2149.4629357386
11	5519	107	2149.4629357386
11	5520	108	2149.4629357386
11	5521	109	2149.4629357386
11	5522	110	2149.4629357386
11	5523	111	2149.4629357386
11	5524	112	2149.4629357386
11	5525	113	2149.4629357386
11	5526	114	2149.4629357386
11	5527	115	2149.4629357386
11	5528	116	2149.4629357386
11	5529	117	2149.4629357386
11	5530	118	2149.4629357386
11	5531	119	2149.4629357386
11	5532	120	2149.4629357386
11	5533	121	2149.4629357386
11	5534	122	2149.4629357386
11	5535	123	2149.4629357386
11	5536	124	2149.4629357386
11	5537	125	2149.4629357386
11	5539	126	2149.4629357386
11	5540	127	2149.0528018215
11	5541	128	2147.2718015851
11	5542	129	2144.084945525
11	5729	130	2139.9323374917
11	5730	131	2134.784539554
11	7557	132	2128.5717003463
11	7558	133	2120.9053445344
11	7746	134	2111.9719259598
11	7747	135	2102.4491652591
11	7936	136	2092.9182084436
11	7937	137	2083.3820019276
11	7938	138	2073.8501248817
11	7939	139	2064.3237930594
11	7940	140	2054.7853408902
11	7941	141	2045.1241824335
11	7942	142	2035.1357628051
11	7943	143	2025.1461712557
11	7944	144	2015.1600801388
11	7945	145	2005.1571253428
11	7946	146	1995.1689524571
11	7947	147	1985.1755802797
11	7948	148	1975.1831771783
11	7949	149	1965.1910759984
11	7950	150	1955.1875336175
11	7951	151	1945.1856864257
11	7952	152	1935.2539373806
11	7953	153	1925.5277409536
11	7954	154	1915.7877850994
11	7955	155	1906.0555050556
11	7957	156	1896.3057777728
11	7958	157	1886.5861405096
11	7959	158	1876.8463041516
11	7960	159	1867.1243647126
11	7961	160	1857.3927355278
11	7962	161	1847.6784455342
11	7963	162	1837.9407784854
11	7964	163	1827.8834034114
11	7965	164	1817.7759547891
11	7966	165	1807.6984678884
11	7968	166	1797.7507439493
11	7969	167	1787.8015105212
11	7970	168	1777.8478393096
11	7971	169	1767.887118375
11	7972	170	1757.9310037236
11	7973	171	1747.9698392267
11	7974	172	1738.0216936939
11	7975	173	1728.0658833184
11	7976	174	1718.09245509
11	7977	175	1708.1351908504
11	7978	176	1698.179729711
11	7979	177	1688.2300268216
11	7980	178	1678.27325103
11	7981	179	1668.3201894531
11	7982	180	1658.3635240434
11	7983	181	1648.4163424638
11	7984	182	1638.4657274766
11	7985	183	1628.511831908
11	7986	184	1618.5518701201
11	7987	185	1606.4927197422
11	7989	186	1596.6922887327
11	7990	187	1586.8865336229
11	7991	188	1577.1038971727
11	7992	189	1567.3158944548
11	7993	190	1557.4917727052
11	7994	191	1546.9531630171
11	7995	192	1536.4352855068
11	7996	193	1525.9146683773
11	7997	194	1515.3980285969
11	7998	195	1504.8664449927
11	8000	196	1495.6835153014
11	8001	197	1484.2673655327
11	8002	198	1472.8499584979
11	8003	199	1461.4254780472
11	8004	200	1450.0254142436
78	34	33	4.4654144542034
78	35	34	5.0736288288642
78	36	35	6.5003253611678
78	37	36	7.8342005736709
78	38	37	8.2192715786142
78	39	38	2.0878491414744
78	40	39	1.852323959212
78	41	40	2.3105485279139
78	42	41	1.7784726977418
78	43	42	2.0052274149834
78	44	43	1.9008087301602
78	45	44	2.4409008440009
78	46	45	1.9310990962417
78	47	46	1.9198397040568
78	48	47	0.973
78	49	48	0.973
78	50	49	0.973
78	51	50	1.3608302694114
78	52	51	0.973
78	53	52	0.973
78	54	53	5.184935816776
78	55	54	5.8916614605314
78	56	55	6.3479702360366
78	57	56	7.921999441144
78	58	57	7.6510802982193
78	59	58	1.8372209578198
78	60	59	1.8615060243298
78	61	60	1.9847374119693
78	62	61	2.3743664181622
78	63	62	2.1246117638948
78	64	63	1.624125568904
78	65	64	2.1372042694608
78	66	65	1.9852002402299
78	67	66	1.9744675282212
78	68	67	2.1631406560481
78	69	68	2.0370422560844
78	70	69	1.9460966935023
78	71	70	2.2243258707623
78	72	71	2.1036918123919
78	73	72	1.8617874503507
78	74	73	2.2730233932817
78	75	74	2.0444548706331
78	76	75	1.7022264745836
78	78	76	2.1874513561743
78	79	77	1.9267802728359
78	80	78	2.1186333180245
78	81	79	1.8545368441952
78	82	80	1.9762726122655
78	83	81	2.329541735546
78	84	82	2.040845848095
78	85	83	2.1499178336586
78	86	84	1.8684832879437
78	87	85	2.0477387033513
78	88	86	1.8758011718824
78	207	87	2.1509465778145
78	208	88	2.0563865205322
78	1961	89	1.977053419609
78	1962	90	2.071000674417
78	4268	91	2.0058741631469
78	4269	92	2.0611820611923
78	5258	93	2.0151735999516
78	5259	94	2.1782878734222
78	5385	95	1.7424847504855
78	5386	96	2.1619546973747
78	5508	97	1.9433863308756
78	5509	98	2.3234083057075
78	5510	99	0.973
78	5511	100	0.973
78	5512	101	0.973
78	5513	102	0.973
78	5514	103	0.973
78	5515	104	0.973
78	5516	105	0.973
78	5518	106	0.973
78	5519	107	0.973
78	5520	108	0.973
78	5521	109	0.973
78	5522	110	0.973
78	5523	111	0.973
78	5524	112	0.973
78	5525	113	0.973
78	5526	114	0.973
78	5527	115	0.973
78	5528	116	0.973
78	5529	117	0.973
78	5530	118	0.973
78	5531	119	0.973
78	5532	120	0.973
78	5533	121	0.973
78	5534	122	0.973
78	5535	123	0.973
78	5536	124	0.973
78	5537	125	0.973
78	5539	126	0.973
78	5540	127	0.973
78	5541	128	0.973
78	5542	129	0.973
78	5729	130	0.973
78	5730	131	0.973
78	7557	132	0.973
78	7558	133	0.973
78	7746	134	0.973
78	7747	135	0.973
78	7936	136	0.973
78	7937	137	0.973
78	7938	138	0.973
78	7939	139	0.973
78	7940	140	0.973
78	7941	141	0.973
78	7942	142	0.973
78	7943	143	0.973
78	7944	144	0.973
78	7945	145	0.973
78	7946	146	0.973
78	7947	147	0.973
78	7948	148	0.973
78	7949	149	0.973
78	7950	150	0.973
78	7951	151	0.973
78	7952	152	0.973
78	7953	153	0.973
78	7954	154	0.973
78	7955	155	0.973
78	7957	156	2.5398784847748
78	7958	157	3.5710409523471
78	7959	158	4.3682643390962
78	7960	159	5.5304391169607
78	7961	160	7.0033885056174
78	7962	161	0.973
78	7963	162	0.973
78	7964	163	0.973
78	7965	164	2.8521113001452
78	7966	165	5.1242055166483
78	7968	166	6.1754558974773
78	7969	167	7.5158202000865
78	7970	168	8.8848336874943
78	7971	169	3.4219807399154
78	7972	170	2.1320612319563
78	7973	171	1.8204816449484
78	7974	172	2.1423381871159
78	7975	173	2.1275762754958
78	7976	174	2.0092495728036
78	7977	175	2.0676779761931
78	7978	176	1.8775909671115
78	7979	177	2.2660221507851
78	7980	178	1.727173889423
78	7981	179	2.2719105086863
78	7982	180	1.9586295959805
78	7983	181	2.1285354506244
78	7984	182	2.084914153992
78	7985	183	1.6693626786142
78	7986	184	2.1181737627298
78	7987	185	1.9340219765248
78	7989	186	2.2853528835894
78	7990	187	2.1194837324468
78	7991	188	1.7077291725858
78	7992	189	2.1249402082979
78	7993	190	2.1647278039944
78	7994	191	2.1160962652217
78	7995	192	1.82649188015
78	7996	193	2.2693149863805
78	7997	194	1.8236581194687
78	7998	195	2.0398467604319
78	8000	196	2.1403792282729
78	8001	197	1.9829317033568
78	8002	198	1.8596890768758
78	8003	199	2.1980614374704
78	8004	200	1.9106015098291
77	34	33	2.1108386883535
77	35	34	1.8691156523162
77	36	35	2.0254057548312
77	37	36	2.0776507037738
77	38	37	1.8608188961036
77	39	38	0.019533643305767
77	40	39	-0.049742171096149
77	41	40	0.085004836751613
77	42	41	-0.072280976942274
77	43	42	-0.0040022042999048
77	44	43	-0.034438937976956
77	45	44	0.1234809487802
77	46	45	-0.028024048998487
77	47	46	-0.03053516549291
77	48	47	-1.188999807438
77	49	48	-2.3713316985366
77	50	49	-2.2913019514486
77	51	50	-0.092053512224842
77	52	51	-2.7327694335153
77	53	52	-1.3258765114396
77	54	53	2.4693662577961
77	55	54	2.12749273255
77	56	55	1.8702119333204
77	57	56	2.0340334144491
77	58	57	1.6642719219845
77	59	58	-0.058081688408274
77	60	59	-0.04952470080927
77	61	60	-0.012338334685191
77	62	61	0.10040123965824
77	63	62	0.02542294482002
77	64	63	-0.12030795856379
77	65	64	0.032031546502841
77	66	65	-0.012925733730663
77	67	66	-0.015671704655979
77	68	67	0.03940826722188
77	69	68	0.0017723501380527
77	70	69	-0.024625178959687
77	71	70	0.056483946428635
77	72	71	0.019981009552721
77	73	72	-0.050489340359347
77	74	73	0.069578633683269
77	75	74	0.0017572802235364
77	76	75	-0.097424090469721
77	78	76	0.045881251569371
77	79	77	-0.030813149621245
77	80	78	0.025573528825772
77	81	79	-0.051661419356241
77	82	80	-0.014855802219827
77	83	81	0.087579179583118
77	84	82	0.0017236252827555
77	85	83	0.033052734031809
77	86	84	-0.049067566599698
77	87	85	0.0041363581782203
77	88	86	-0.045763913826086
77	207	87	0.035181148496923
77	208	88	0.0068244753940956
77	1961	89	-0.016301492801867
77	1962	90	0.011327437029687
77	4268	91	-0.0078217150154529
77	4269	92	0.0083877628739
77	5258	93	-0.0051497571193622
77	5259	94	0.042005732280668
77	5385	95	-0.08528355127666
77	5386	96	0.038700135878752
77	5508	97	-0.025659335926175
77	5509	98	0.084628021754325
77	5510	99	-2.0793120581818
77	5511	100	-2.4015877184608
77	5512	101	-2.2871890414615
77	5513	102	-2.0547016602057
77	5514	103	-1.8502424696211
77	5515	104	-1.4535976492622
77	5516	105	-1.0186477853521
77	5518	106	-0.84679565296563
77	5519	107	0
77	5520	108	0
77	5521	109	0
77	5522	110	0
77	5523	111	0
77	5524	112	0
77	5525	113	0
77	5526	114	0
77	5527	115	0
77	5528	116	0
77	5529	117	0
77	5530	118	0
77	5531	119	0
77	5532	120	0
77	5533	121	0
77	5534	122	0
77	5535	123	0
77	5536	124	0
77	5537	125	0
77	5539	126	0
77	5540	127	0
77	5541	128	0
77	5542	129	0
77	5729	130	0
77	5730	131	0
77	7557	132	0
77	7558	133	0
77	7746	134	0
77	7747	135	0
77	7936	136	0
77	7937	137	0
77	7938	138	0
77	7939	139	0
77	7940	140	0
77	7941	141	0
77	7942	142	0
77	7943	143	0
77	7944	144	0
77	7945	145	0
77	7946	146	0
77	7947	147	0
77	7948	148	0
77	7949	149	0
77	7950	150	0
77	7951	151	0
77	7952	152	0
77	7953	153	0
77	7954	154	0
77	7955	155	0
77	7957	156	2.3367656559357
77	7958	157	2.0960052301723
77	7959	158	1.9144283985696
[...]
71	7936	136	1.7015894171642
71	7937	137	1.6058481954617
71	7938	138	1.4951182769464
71	7939	139	1.5732099958636
71	7940	140	1.4249099012019
71	7941	141	1.4168768380813
71	7942	142	1.2554455633742
71	7943	143	1.7425298897252
71	7944	144	0.973
71	7945	145	2.3445566601693
71	7946	146	5.2342541862826
71	7947	147	6.3949170471936
71	7948	148	7.1832131848338
71	7949	149	7.507622093624
71	7950	150	5.1487288255352
71	7951	151	1.9016730852031
71	7952	152	2.0986160602373
71	7953	153	1.8913510163998
71	7954	154	2.0480330298232
71	7955	155	2.2811608405832
71	7957	156	1.643420895769
71	7958	157	2.3750554495132
71	7959	158	1.762982106466
71	7960	159	2.0922353636345
71	7961	160	2.0352259295592
71	7962	161	1.8635568121843
71	7963	162	2.3859601484965
71	7964	163	2.06784594053
71	7965	164	1.686838665895
71	7966	165	2.0595738432223
71	7968	166	2.276300263208
71	7969	167	1.735511575793
71	7970	168	2.3046667728345
71	7971	169	2.1133776428981
71	7972	170	1.7301507949463
71	7973	171	2.0936711096387
71	7974	172	2.1542459111535
71	7975	173	2.0573783031912
71	7976	174	2.0328379109625
71	7977	175	2.1922742309598
71	7978	176	1.8633202834042
71	7979	177	2.149720515273
71	7980	178	2.0378634878787
71	7981	179	2.051679147445
71	7982	180	2.0186722991615
71	7983	181	1.7906648685066
71	7984	182	2.2327002992309
71	7985	183	2.0353199468576
71	7986	184	1.7434182125078
71	7987	185	2.1327350259785
71	7989	186	2.2679690015933
71	7990	187	1.9433705220726
71	7991	188	1.8377789393573
71	7992	189	1.9729368675087
71	7993	190	2.3616900553168
71	7994	191	1.7404084652403
71	7995	192	2.0651826249807
71	7996	193	2.3372085391536
71	7997	194	1.963861445121
71	7998	195	1.8092106457634
71	8000	196	2.2316589224365
71	8001	197	2.13126449009
71	8002	198	1.6848847184049
71	8003	199	1.9924664758703
71	8004	200	2.2186151260445
70	31	30	1.9568191743502
70	32	31	1.9572691578092
70	33	32	1.7314382667607
70	34	33	1.713887941076
70	35	34	1.7811930986517
70	36	35	0.5455487020282
70	37	36	0.014625610450748
70	38	37	-0.12835575377569
70	39	38	0.086069189966656
70	40	39	-0.0032880703615952
70	41	40	0.0367009765096
70	42	41	-0.10748315524077
70	43	42	0.050165324136614
70	44	43	0.053652309875471
70	45	44	-1.3927549439091
70	46	45	-2.3100111124945
70	47	46	-2.2251499659377
70	48	47	-0.048479581583107
70	49	48	-2.7187145226647
70	50	49	-1.3405991529233
70	51	50	2.332728817747
70	52	51	2.0231203507166
70	53	52	1.8883653629874
70	54	53	2.006740005943
70	55	54	1.8673009272524
70	56	55	-0.084638701267542
70	57	56	0.09849415921839
70	58	57	0.00537992921425
70	59	58	-0.064389257105066
70	60	59	-0.0091464570048263
70	61	60	0.081863851931411
70	62	61	0.011321710660123
70	63	62	-0.12257896858733
70	64	63	0.095039613645058
70	65	64	-0.041067937707995
70	66	65	0.023292321457994
70	67	66	-0.034027653224767
70	68	67	0.069706433343235
70	69	68	-0.061600774463731
70	70	69	0.055408083661458
70	71	70	-0.027394999936222
70	72	71	0.014955741502344
70	73	72	-0.081735791058746
70	74	73	0.07110673281597
70	75	74	0.03683202761691
70	76	75	-0.047641739291139
70	78	76	0.041505734035745
70	79	77	-0.055693347149063
70	80	78	-0.060849470170213
70	81	79	0.0160685518221
70	82	80	0.030786899500526
70	83	81	-0.029142764753198
70	84	82	0.10338073273888
70	85	83	-0.062786457769107
70	86	84	0.012529305473436
70	87	85	-0.07114103670232
70	88	86	0.027723220291083
70	207	87	0.04872392643243
70	208	88	0.03577303858474
70	1961	89	0.012846215711905
70	1962	90	-0.04731580217136
70	4268	91	-0.053079487648793
70	4269	92	0.075722418022343
70	5258	93	-0.070170230655931
70	5259	94	0.086197501881978
70	5385	95	-0.058015003560577
70	5386	96	-1.0415817406085
70	5508	97	-2.3547175345106
70	5509	98	-2.3405837220355
70	5510	99	-2.2320040814184
70	5511	100	-1.9331655225584
70	5512	101	-1.6216955560758
70	5513	102	-1.222768029599
70	5514	103	-0.68643540517451
70	5515	104	-0.051417844916983
70	5516	105	-0.44718888348027
70	5518	106	0
70	5519	107	0
70	5520	108	0
70	5521	109	0
70	5522	110	0
70	5523	111	0
70	5524	112	0
70	5525	113	0
70	5526	114	0
70	5527	115	0
70	5528	116	0
70	5529	117	0
70	5530	118	0
70	5531	119	0
70	5532	120	0
70	5533	121	0
70	5534	122	0
70	5535	123	0
70	5536	124	0
70	5537	125	0
70	5539	126	0.20938865522275
70	5540	127	0.21420873894061
70	5541	128	0.0249770286662
70	5542	129	-0.01974638618587
70	5729	130	0.020999886635109
70	5730	131	-0.0074286335305078
70	7557	132	0.28314000198314
70	7558	133	0.80752925209689
70	7746	134	0.69815498266207
70	7747	135	0.53272774276527
70	7936	136	0.53887335144641
70	7937	137	0.35689159969367
70	7938	138	0.20733676919078
70	7939	139	0.25912264371503
70	7940	140	0.10202084364186
70	7941	141	0.087728682884685
70	7942	142	-0.065117208187107
70	7943	143	0.36081090963588
70	7944	144	-0.40826982894308
70	7945	145	0.81165639960183
70	7946	146	2.1638858542452
70	7947	147	2.1239184190473
70	7948	148	1.9837532304577
70	7949	149	1.7679876518249
70	7950	150	0.92380499020781
70	7951	151	-0.038986439798029
70	7952	152	0.019033402765636
70	7953	153	-0.041445179483853
70	7954	154	0.0051127103483299
70	7955	155	0.072027522230055
70	7957	156	-0.11453917977167
70	7958	157	0.10039914753521
70	7959	158	-0.079316215631552
70	7960	159	0.018383460652549
70	7961	160	0.0013473963644355
70	7962	161	-0.048521068105474
70	7963	162	0.10379865516908
70	7964	163	0.0090687707741743
70	7965	164	-0.10164035418769
70	7966	165	0.0094685785728501
70	7968	166	0.071647336711177
70	7969	167	-0.086952252942138
70	7970	168	0.080316083179788
70	7971	169	0.022720536484847
70	7972	170	-0.08889446524903
70	7973	171	0.019083156308625
70	7974	172	0.035964823763351
70	7975	173	0.0069304137304425
70	7976	174	-0.00035645538940976
70	7977	175	0.04552270765882
70	7978	176	-0.050631316876972
70	7979	177	0.033471430959182
70	7980	178	0.00026650133309758
70	7981	179	0.0042365497746513
70	7982	180	-0.0053941953624594
70	7983	181	-0.071269305818715
70	7984	182	0.058567956429906
70	7985	183	-6.5417133736645e-05
70	7986	184	-0.084727542763575
70	7987	185	0.030632965434341
70	7989	186	0.068537401121576
70	7990	187	-0.027022941522301
70	7991	188	-0.056925138975494
70	7992	189	-0.016102756822946
70	7993	190	0.096483322430867
70	7994	191	-0.085862899189815
70	7995	192	0.010801560597029
70	7996	193	0.088714438122697
70	7997	194	-0.021384297534825
70	7998	195	-0.065634417301043
70	8000	196	0.058402181286365
70	8001	197	0.027672596483026
70	8002	198	-0.1023591803899
70	8003	199	-0.010166514993179
70	8004	200	0.055532860367093
69	30	29	4.1885270936726
69	31	30	6.1453462680228
69	32	31	8.102615425832
69	33	32	9.8340536925927
69	34	33	11.547941633669
69	35	34	13.32913473232
69	36	35	13.874683434349
69	37	36	13.889309044799
69	38	37	13.760953291024
69	39	38	13.84702248099
69	40	39	13.843734410629
69	41	40	13.880435387138
69	42	41	13.772952231898
69	43	42	13.823117556034
69	44	43	13.87676986591
69	45	44	12.484014922
69	46	45	10.174003809506
69	47	46	7.9488538435683
69	48	47	7.9003742619851
69	49	48	5.1816597393205
69	50	49	3.8410605863972
69	51	50	6.1737894041441
69	52	51	8.1969097548608
69	53	52	10.085275117848
69	54	53	12.092015123791
69	55	54	13.959316051044
69	56	55	13.874677349776
69	57	56	13.973171508994
69	58	57	13.978551438209
69	59	58	13.914162181104
69	60	59	13.905015724099
69	61	60	13.98687957603
69	62	61	13.99820128669
69	63	62	13.875622318103
69	64	63	13.970661931748
69	65	64	13.92959399404
69	66	65	13.952886315498
69	67	66	13.918858662273
69	68	67	13.988565095617
69	69	68	13.926964321153
69	70	69	13.982372404814
69	71	70	13.954977404878
69	72	71	13.96993314638
69	73	72	13.888197355322
69	74	73	13.959304088138
69	75	74	13.996136115754
69	76	75	13.948494376463
69	78	76	13.990000110499
69	79	77	13.93430676335
69	80	78	13.87345729318
69	81	79	13.889525845002
69	82	80	13.920312744502
69	83	81	13.891169979749
69	84	82	13.994550712488
69	85	83	13.931764254719
69	86	84	13.944293560192
69	87	85	13.87315252349
69	88	86	13.900875743781
69	207	87	13.949599670214
69	208	88	13.985372708798
69	1961	89	13.99821892451
69	1962	90	13.950903122339
69	4268	91	13.89782363469
69	4269	92	13.973546052712
69	5258	93	13.903375822057
69	5259	94	13.989573323939
69	5385	95	13.931558320378
69	5386	96	12.889976579769
69	5508	97	10.535259045259
69	5509	98	8.1946753232233
69	5510	99	5.9626712418049
69	5511	100	4.0295057192465
69	5512	101	2.4078101631707
69	5513	102	1.1850421335718
69	5514	103	0.49860672839725
69	5515	104	0.44718888348027
69	5516	105	0
69	5518	106	0
69	5519	107	0
69	5520	108	0
69	5521	109	0
69	5522	110	0
69	5523	111	0
69	5524	112	0
69	5525	113	0
69	5526	114	0
69	5527	115	0
69	5528	116	0
69	5529	117	0
69	5530	118	0
69	5531	119	0
69	5532	120	0
69	5533	121	0
69	5534	122	0
69	5535	123	0
69	5536	124	0
69	5537	125	0
69	5539	126	0.20938865522275
69	5540	127	0.42359739416335
69	5541	128	0.44857442282955
69	5542	129	0.42882803664368
69	5729	130	0.44982792327879
69	5730	131	0.44239928974828
69	7557	132	0.72553929173143
69	7558	133	1.5330685438283
69	7746	134	2.2312235264904
69	7747	135	2.7639512692557
69	7936	136	3.3028246207021
69	7937	137	3.6597162203957
69	7938	138	3.8670529895865
69	7939	139	4.1261756333016
69	7940	140	4.2281964769434
69	7941	141	4.3159251598281
69	7942	142	4.250807951641
69	7943	143	4.6116188612769
69	7944	144	4.2033490323338
69	7945	145	5.0150054319356
69	7946	146	7.1788912861808
69	7947	147	9.302809705228
69	7948	148	11.286562935686
69	7949	149	13.054550587511
69	7950	150	13.978355577718
69	7951	151	13.93936913792
69	7952	152	13.958402540686
69	7953	153	13.916957361202
69	7954	154	13.922070071551
69	7955	155	13.994097593781
69	7957	156	13.879558414009
69	7958	157	13.979957561544
69	7959	158	13.900641345913
69	7960	159	13.919024806565
69	7961	160	13.92037220293
69	7962	161	13.871851134824
69	7963	162	13.975649789993
69	7964	163	13.984718560767
69	7965	164	13.88307820658
69	7966	165	13.892546785153
69	7968	166	13.964194121864
69	7969	167	13.877241868922
69	7970	168	13.957557952101
69	7971	169	13.980278488586
69	7972	170	13.891384023337
69	7973	171	13.910467179646
69	7974	172	13.946432003409
69	7975	173	13.95336241714
69	7976	174	13.95300596175
69	7977	175	13.998528669409
69	7978	176	13.947897352532
69	7979	177	13.981368783491
69	7980	178	13.981635284824
69	7981	179	13.985871834599
69	7982	180	13.980477639236
69	7983	181	13.909208333418
69	7984	182	13.967776289848
69	7985	183	13.967710872714
69	7986	184	13.88298332995
69	7987	185	13.913616295385
69	7989	186	13.982153696506
69	7990	187	13.955130754984
69	7991	188	13.898205616008
69	7992	189	13.882102859186
69	7993	190	13.978586181616
69	7994	191	13.892723282427
69	7995	192	13.903524843024
69	7996	193	13.992239281146
69	7997	194	13.970854983611
69	7998	195	13.90522056631
69	8000	196	13.963622747597
69	8001	197	13.99129534408
69	8002	198	13.88893616369
69	8003	199	13.878769648697
69	8004	200	13.934302509064
68	29	28	1578.4646326732
68	30	29	1578.4646326732
68	31	30	1579.5986517062
68	32	31	1581.7423672481
68	33	32	1586.9080099538
68	34	33	1593.3719751006
68	35	34	1601.0871393541
68	36	35	1610.0351614747
68	37	36	1619.8598473864
68	38	37	1629.6911440864
68	39	38	1639.530417718
68	40	39	1649.6739925323
68	41	40	1661.6279815631
68	42	41	1673.8816657187
68	43	42	1682.7560368627
68	44	43	1692.0128514823
68	45	44	1695.5999165168
68	46	45	1697.306546744
68	47	46	1698.4143366097
68	48	47	1699.2522509955
68	49	48	1699.99092039
68	50	49	1700.585499499
68	51	50	1700.9266446279
68	52	51	1701.4301908994
68	53	52	1707.6362714609
68	54	53	1716.7571854917
68	55	54	1727.8339322917
68	56	55	1740.8635680582
68	57	56	1754.6674355241
68	58	57	1768.5924180076
68	59	58	1782.4900942137
68	60	59	1796.3835249227
68	61	60	1810.295890959
68	62	61	1824.2029342465
68	63	62	1838.1324145859
68	64	63	1851.9968899293
68	65	64	1865.8873176025
68	66	65	1879.8015412651
68	67	66	1893.708773436
68	68	67	1907.6108170124
68	69	68	1921.518198492
68	70	69	1935.436019076
68	71	70	1949.3382818336
68	72	71	1963.2310220618
68	73	72	1977.1150795827
68	74	73	1991.0261905957
68	75	74	2004.9076367822
68	76	75	2018.7962823557
68	78	76	2032.6964808721
68	79	77	2046.5920114908
68	80	78	2060.4812892936
68	81	79	2074.3615958327
68	82	80	2088.2480693581
68	83	81	2101.8726252643
68	84	82	2112.9942486044
68	85	83	2119.4660495203
68	86	84	2120.7221720051
68	87	85	2120.2512520831
68	88	86	2119.7810029797
68	207	87	2119.3106335914
68	208	88	2118.8392896932
68	1961	89	2118.3685813732
68	1962	90	2117.8980129417
68	4268	91	2117.4274646994
68	4269	92	2116.9568047132
68	5258	93	2116.4861411033
68	5259	94	2116.0159922568
68	5385	95	2115.5452462845
68	5386	96	2113.7325765127
68	5508	97	2111.8112654528
68	5509	98	2109.0532204425
68	5510	99	2106.0940384893
68	5511	100	2103.8621053891
68	5512	101	2102.2979643298
68	5513	102	2101.3140429463
68	5514	103	2100.7647159249
68	5515	104	2100.5158801815
68	5516	105	2100.3749172334
68	5518	106	2100.3683059681
68	5519	107	2100.3683059681
68	5520	108	2100.3683059681
68	5521	109	2100.3683059681
68	5522	110	2100.3683059681
68	5523	111	2100.3683059681
68	5524	112	2100.3683059681
68	5525	113	2100.3683059681
68	5526	114	2100.3683059681
68	5527	115	2100.3683059681
68	5528	116	2100.3683059681
68	5529	117	2100.3683059681
68	5530	118	2100.3683059681
68	5531	119	2100.3683059681
68	5532	120	2100.3683059681
68	5533	121	2100.3683059681
68	5534	122	2100.3683059681
68	5535	123	2100.3683059681
68	5536	124	2100.3683059681
68	5537	125	2100.3683059681
68	5539	126	2100.3683059681
68	5540	127	2100.3615807397
68	5541	128	2100.2246348942
68	5542	129	2100.085012828
68	5729	130	2099.9452018887
68	5730	131	2099.8050173176
68	7557	132	2099.6646924522
68	7558	133	2099.5021719895
68	7746	134	2099.1228899052
68	7747	135	2098.4946187362
68	7936	136	2097.3633603184
68	7937	137	2095.7889344953
68	7938	138	2094.0482557416
68	7939	139	2092.0929375812
68	7940	140	2090.0994363036
68	7941	141	2087.9047242608
68	7942	142	2085.8053983077
68	7943	143	2083.4538125703
68	7944	144	2081.327180543
68	7945	145	2078.8359149443
68	7946	146	2076.7579600578
68	7947	147	2072.9538405472
68	7948	148	2066.8671705239
68	7949	149	2059.2454611175
68	7950	150	2050.2650158377
68	7951	151	2040.2038876293
68	7952	152	2030.0403366378
68	7953	153	2019.8505597934
68	7954	154	2009.6948004821
68	7955	155	1999.5315674823
68	7957	156	1989.3577017291
68	7958	157	1979.1870475709
68	7959	158	1969.4326674845
68	7960	159	1959.7239707569
68	7961	160	1950.0147077767
68	7962	161	1940.2994020246
68	7963	162	1930.5924388552
68	7964	163	1920.8785189437
68	7965	164	1911.1662509535
68	7966	165	1901.4474713132
68	7968	166	1891.7316842405
68	7969	167	1882.0268621631
68	7970	168	1872.306782214
68	7971	169	1862.37324268
68	7972	170	1852.4060621569
68	7973	171	1842.445852573
68	7974	172	1832.4773660228
68	7975	173	1822.497488034
68	7976	174	1812.5187990712
68	7977	175	1802.5395375732
68	7978	176	1792.55319288
68	7979	177	1782.576857564
68	7980	178	1772.590736839
68	7981	179	1762.8016737634
68	7982	180	1753.1980223199
68	7983	181	1743.5996079324
68	7984	182	1733.8782698261
68	7985	183	1724.1100411518
68	7986	184	1714.3629048932
68	7987	185	1704.628466499
68	7989	186	1694.8706555702
68	7990	187	1685.1153564658
68	7991	188	1675.3588198163
68	7992	189	1665.6144446963
68	7993	190	1655.8663292425
68	7994	191	1646.1002435377
68	7995	192	1636.3454205217
68	7996	193	1626.5932027558
68	7997	194	1616.8285104213
68	7998	195	1607.0719800638
68	8000	196	1597.3336133845
68	8001	197	1587.5813445356
68	8002	198	1577.8126249835
68	8003	199	1568.0606581336
68	8004	200	1558.2973561324
67	29	28	2414.8387287854
67	30	29	2414.8387287854
67	31	30	2411.7503977651
67	32	31	2406.9754091416
67	33	32	2401.8753644078
67	34	33	2395.4934844975
67	35	34	2387.8762943314
67	36	35	2379.0419022342
67	37	36	2369.3419790111
67	38	37	2359.6355289492
67	39	38	2349.9212032534
67	40	39	2340.5628082656
67	41	40	2334.465267002
67	42	41	2338.0647009534
67	43	42	2348.6530792566
67	44	43	2358.9176140998
67	45	44	2371.8809477445
67	46	45	2384.8846471948
67	47	46	2396.1797201078
67	48	47	2405.0412241777
67	49	48	2412.8531461995
67	50	49	2419.1412172525
67	51	50	2423.1282091528
67	52	51	2428.3117442011
67	53	52	2431.1873857466
67	54	53	2432.5734357862
67	55	54	2434.2567018807
67	56	55	2436.2367366786
67	57	56	2438.1671750253
67	58	57	2439.0675805615
67	59	58	2440.0469834617
67	60	59	2441.0572698959
67	61	60	2442.0689332474
67	62	61	2443.0802095452
67	63	62	2444.0931173948
67	64	63	2445.1012982862
67	65	64	2446.1113663492
67	66	65	2447.1231647814
67	67	66	2448.1344548143
67	68	67	2449.145367549
67	69	68	2450.1566684392
67	70	69	2450.0994799006
67	71	70	2448.9856324941
67	72	71	2447.8725480314
67	73	72	2446.7601592259
67	74	73	2445.6456028984
67	75	74	2444.5334233128
67	76	75	2443.4206669133
67	78	76	2442.3069848935
67	79	77	2441.193676865
67	80	78	2440.1459298433
67	81	79	2439.206466924
67	82	80	2438.5993521463
67	83	81	2436.1994622689
67	84	82	2427.9942116053
67	85	83	2415.6925457548
67	86	84	2401.9525696691
67	87	85	2388.0100685152
67	88	86	2374.087428232
67	207	87	2360.1612266978
67	208	88	2346.2061729017
67	1961	89	2332.2699366264
67	1962	90	2318.3378420154
67	4268	91	2304.4063451559
67	4269	92	2290.4715399056
67	5258	93	2276.5366273695
67	5259	94	2262.6169554003
67	5385	95	2248.6796043477
67	5386	96	2234.8764798633
67	5508	97	2221.3277750708
67	5509	98	2210.1129744704
67	5510	99	2201.3877733919
67	5511	100	2194.806878604
67	5512	101	2190.1949806286
67	5513	102	2187.2938707783
67	5514	103	2185.6741701978
67	5515	104	2184.9404735443
67	5516	105	2184.5248417627
67	5518	106	2184.5053483292
67	5519	107	2184.5053483292
67	5520	108	2184.5053483292
67	5521	109	2184.5053483292
67	5522	110	2184.5053483292
67	5523	111	2184.5053483292
67	5524	112	2184.5053483292
67	5525	113	2184.5053483292
67	5526	114	2184.5053483292
67	5527	115	2184.5053483292
67	5528	116	2184.5053483292
67	5529	117	2184.5053483292
67	5530	118	2184.5053483292
67	5531	119	2184.5053483292
67	5532	120	2184.5053483292
67	5533	121	2184.5053483292
67	5534	122	2184.5053483292
67	5535	123	2184.5053483292
67	5536	124	2184.5053483292
67	5537	125	2184.5053483292
67	5539	126	2184.5053483292
67	5540	127	2184.4855188732
67	5541	128	2184.0817315918
67	5542	129	2183.6700534234
67	5729	130	2183.2578183612
67	5730	131	2182.8444816383
67	7557	132	2182.4307312559
67	7558	133	2181.9515367534
67	7746	134	2180.8332167241
67	7747	135	2178.9807479104
67	7936	136	2176.7408489988
67	7937	137	2174.0663661512
67	7938	138	2171.1094688498
67	7939	139	2167.7879628105
67	7940	140	2164.4015949717
67	7941	141	2160.6734296787
67	7942	142	2157.1072970802
67	7943	143	2153.1126498727
67	7944	144	2149.5001323485
67	7945	145	2145.2682104547
67	7946	146	2141.7383809647
67	7947	147	2136.822919306
67	7948	148	2131.1211266585
67	7949	149	2123.9813595135
67	7950	150	2115.5687732109
67	7951	151	2106.1438386211
67	7952	152	2096.6229577293
67	7953	153	2087.0775093207
67	7954	154	2077.5639274194
67	7955	155	2068.0433444126
67	7957	156	2058.5128009913
67	7958	157	2048.9852660875
67	7959	158	2039.0407414375
67	7960	159	2029.0533867473
67	7961	160	2019.0654495528
67	7962	161	2009.0712961471
67	7963	162	1999.0857247716
67	7964	163	1989.0929969823
67	7965	164	1979.1019685281
67	7966	165	1969.1042415265
67	7968	166	1959.1095929857
67	7969	167	1949.1262241561
67	7970	168	1939.1271595239
67	7971	169	1929.3591035519
67	7972	170	1919.6325599318
67	7973	171	1909.912818952
67	7974	172	1900.1850008359
67	7975	173	1890.4460663042
67	7976	174	1880.7082920918
67	7977	175	1870.9699591667
67	7978	176	1861.2247140562
67	7979	177	1851.4892366661
67	7980	178	1841.7442101162
67	7981	179	1831.8410031263
67	7982	180	1821.7291830094
67	7983	181	1811.6228770635
67	7984	182	1801.6275145856
67	7985	183	1791.6600616932
67	7986	184	1781.7141314001
67	7987	185	1771.7811579449
67	7989	186	1761.8243352699
67	7990	187	1751.8700756478
67	7991	188	1741.9145532409
67	7992	189	1731.9714403993
67	7993	190	1722.0245109395
67	7994	191	1712.0592447239
67	7995	192	1702.1054708997
67	7996	193	1692.1543554611
67	7997	194	1682.1905110327
67	7998	195	1672.2349950463
67	8000	196	1662.2980131882
67	8001	197	1652.3468456247
67	8002	198	1642.3788918438
67	8003	199	1632.4280324373
67	8004	200	1622.4656066992
