version 2
run JoinManeuver-0-20190109-13:22:22-15200
attr beaconInterval 0.1
attr caccOmegaN 0.2
attr caccXi 1
attr configname JoinManeuver
attr datetime 20190109-13:22:22
attr experiment JoinManeuver
attr inifile omnetpp.ini
attr iterationvars "$nCars=4, $platoonSize=4, $nLanes=1, $caccXi=1, $caccOmegaN=0.2, $ploegH=0.5, $leaderHeadway=1.2, $leaderSpeed=100, $beaconInterval=0.1, $priority=2, $packetSize=200"
attr iterationvarsf nCars=4,platoonSize=4,nLanes=1,caccXi=1,caccOmegaN=0.2,ploegH=0.5,leaderHeadway=1.2,leaderSpeed=100,beaconInterval=0.1,priority=2,packetSize=200-
attr leaderHeadway 1.2
attr leaderSpeed 100
attr measurement "$nCars=4, $platoonSize=4, $nLanes=1, $caccXi=1, $caccOmegaN=0.2, $ploegH=0.5, $leaderHeadway=1.2, $leaderSpeed=100, $beaconInterval=0.1, $priority=2, $packetSize=200"
attr nCars 4
attr nLanes 1
attr network Highway
attr packetSize 200
attr platoonSize 4
attr ploegH 0.5
attr priority 2
attr processid 15200
attr repetition 0
attr replication #0
attr resultdir results
attr runnumber 0
attr seedset 0
param **.controllerOmegaN 0.2
param **.controllerXi 1
param **.coreDebug false
param **.debug false
param **.numberOfCars 4
param **.numberOfCarsPerPlatoon 4
param **.numberOfLanes 1
param **.numericController 0
param **.seed 0
param **.traffic.nCars 4
param **.traffic.nLanes 1
param **.traffic.platoonInsertDistance "5 m"
param **.traffic.platoonInsertHeadway "0 s"
param **.traffic.platoonInsertSpeed 100kmph
param **.traffic.platoonInsertTime "1 s"
param **.traffic.platoonLeaderHeadway 1.2s
param **.traffic.platoonSize 4
param **.traffic.platooningVType "\"vtypeauto\""
param **.traffic_type "\"JoinTrafficManager\""
param *.**.nic.mac1609_4.bitrate 6Mbps
param *.**.nic.mac1609_4.txPower 100mW
param *.**.nic.mac1609_4.useServiceChannel false
param *.**.nic.phy80211p.analogueModels "xmldoc(\"config.xml\")"
param *.**.nic.phy80211p.decider "xmldoc(\"config.xml\")"
param *.**.nic.phy80211p.maxTXPower 100mW
param *.**.nic.phy80211p.sensitivity -94dBm
param *.**.nic.phy80211p.thermalNoise -95dBm
param *.**.nic.phy80211p.usePropagationDelay true
param *.**.nic.phy80211p.useThermalNoise true
param *.annotations.draw false
param *.connectionManager.drawMaxIntfDist false
param *.connectionManager.maxInterfDist 2600m
param *.connectionManager.sendDirect true
param *.manager.autoShutdown true
param *.manager.configFile "\"./sumocfg/freeway.sumo.cfg\""
param *.manager.host "\"localhost\""
param *.manager.margin 25
param *.manager.moduleDisplayString "\"\""
param *.manager.moduleName "\"node\""
param *.manager.moduleType "\"org.car2x.veins.modules.application.platooning.PlatoonCar\""
param *.manager.updateInterval 0.01s
param *.manager.useGui true
param *.node[*].appl.joinManeuver "\"JoinAtBack\""
param *.node[*].appl_type "\"GeneralPlatooningApp\""
param *.node[*].helper_type "\"LocalPlatoonPositionHelper\""
param *.node[*].mobility.x 0
param *.node[*].mobility.y 0
param *.node[*].mobility.z 1.895
param *.node[*].prot.beaconingInterval 0.1s
param *.node[*].prot.packetSize 200
param *.node[*].prot.priority 2
param *.node[*].protocol_type "\"SimplePlatooningBeaconing\""
param *.node[*].scenario.accHeadway "0.1 s"
param *.node[*].scenario.caccC1 0.5
param *.node[*].scenario.caccOmegaN "0.2 Hz"
param *.node[*].scenario.caccXi 1
param *.node[*].scenario.controller "\"CACC\""
param *.node[*].scenario.engineTau "0.5 s"
param *.node[*].scenario.leaderHeadway 1.2s
param *.node[*].scenario.leaderSpeed 100kmph
param *.node[*].scenario.ploegH 0.5s
param *.node[*].scenario.ploegKd 0.7
param *.node[*].scenario.ploegKp 0.2
param *.node[*].scenario.useRealisticEngine false
param *.node[*].scenario_type "\"JoinManeuverScenario\""
param *.node[*].unicast.packetLossRate 0
param *.obstacles.debug false
param *.playgroundSizeX 65000m
param *.playgroundSizeY 25000m
param *.playgroundSizeZ 50m
param *.world.use2D false
param *.world.useTorus false

vector 1  Highway.node[0].appl  distance  ETV
vector 2  Highway.node[0].appl  relativeSpeed  ETV
vector 3  Highway.node[0].appl  nodeId  ETV
vector 7  Highway.node[0].appl  acceleration  ETV
vector 8  Highway.node[0].appl  controllerAcceleration  ETV
vector 4  Highway.node[0].appl  speed  ETV
vector 5  Highway.node[0].appl  posx  ETV
vector 6  Highway.node[0].appl  posy  ETV
vector 24  Highway.node[1].appl  distance  ETV
vector 25  Highway.node[1].appl  relativeSpeed  ETV
vector 26  Highway.node[1].appl  nodeId  ETV
vector 30  Highway.node[1].appl  acceleration  ETV
vector 31  Highway.node[1].appl  controllerAcceleration  ETV
vector 27  Highway.node[1].appl  speed  ETV
vector 28  Highway.node[1].appl  posx  ETV
vector 29  Highway.node[1].appl  posy  ETV
vector 47  Highway.node[2].appl  distance  ETV
vector 48  Highway.node[2].appl  relativeSpeed  ETV
vector 49  Highway.node[2].appl  nodeId  ETV
vector 53  Highway.node[2].appl  acceleration  ETV
vector 54  Highway.node[2].appl  controllerAcceleration  ETV
vector 50  Highway.node[2].appl  speed  ETV
vector 51  Highway.node[2].appl  posx  ETV
vector 52  Highway.node[2].appl  posy  ETV
vector 70  Highway.node[3].appl  distance  ETV
vector 71  Highway.node[3].appl  relativeSpeed  ETV
vector 72  Highway.node[3].appl  nodeId  ETV
vector 76  Highway.node[3].appl  acceleration  ETV
vector 77  Highway.node[3].appl  controllerAcceleration  ETV
vector 73  Highway.node[3].appl  speed  ETV
vector 74  Highway.node[3].appl  posx  ETV
vector 75  Highway.node[3].appl  posy  ETV
vector 93  Highway.node[4].appl  distance  ETV
vector 94  Highway.node[4].appl  relativeSpeed  ETV
vector 95  Highway.node[4].appl  nodeId  ETV
vector 99  Highway.node[4].appl  acceleration  ETV
vector 100  Highway.node[4].appl  controllerAcceleration  ETV
vector 96  Highway.node[4].appl  speed  ETV
vector 97  Highway.node[4].appl  posx  ETV
vector 98  Highway.node[4].appl  posy  ETV
vector 9  Highway.node[0].prot  nodeId  ETV
vector 10  Highway.node[0].prot  busyTime  ETV
vector 11  Highway.node[0].prot  collisions  ETV
vector 32  Highway.node[1].prot  nodeId  ETV
vector 33  Highway.node[1].prot  busyTime  ETV
vector 34  Highway.node[1].prot  collisions  ETV
vector 55  Highway.node[2].prot  nodeId  ETV
vector 56  Highway.node[2].prot  busyTime  ETV
vector 57  Highway.node[2].prot  collisions  ETV
vector 78  Highway.node[3].prot  nodeId  ETV
vector 79  Highway.node[3].prot  busyTime  ETV
vector 80  Highway.node[3].prot  collisions  ETV
vector 101  Highway.node[4].prot  nodeId  ETV
vector 102  Highway.node[4].prot  busyTime  ETV
vector 103  Highway.node[4].prot  collisions  ETV
vector 116  Highway.node[5].appl  distance  ETV
vector 117  Highway.node[5].appl  relativeSpeed  ETV
vector 118  Highway.node[5].appl  nodeId  ETV
vector 122  Highway.node[5].appl  acceleration  ETV
vector 123  Highway.node[5].appl  controllerAcceleration  ETV
vector 119  Highway.node[5].appl  speed  ETV
vector 120  Highway.node[5].appl  posx  ETV
vector 121  Highway.node[5].appl  posy  ETV
vector 139  Highway.node[6].appl  distance  ETV
vector 140  Highway.node[6].appl  relativeSpeed  ETV
vector 141  Highway.node[6].appl  nodeId  ETV
vector 145  Highway.node[6].appl  acceleration  ETV
vector 146  Highway.node[6].appl  controllerAcceleration  ETV
vector 142  Highway.node[6].appl  speed  ETV
vector 143  Highway.node[6].appl  posx  ETV
vector 144  Highway.node[6].appl  posy  ETV
vector 162  Highway.node[7].appl  distance  ETV
vector 163  Highway.node[7].appl  relativeSpeed  ETV
vector 164  Highway.node[7].appl  nodeId  ETV
vector 168  Highway.node[7].appl  acceleration  ETV
vector 169  Highway.node[7].appl  controllerAcceleration  ETV
vector 165  Highway.node[7].appl  speed  ETV
vector 166  Highway.node[7].appl  posx  ETV
vector 167  Highway.node[7].appl  posy  ETV
vector 185  Highway.node[8].appl  distance  ETV
vector 186  Highway.node[8].appl  relativeSpeed  ETV
vector 187  Highway.node[8].appl  nodeId  ETV
vector 191  Highway.node[8].appl  acceleration  ETV
vector 192  Highway.node[8].appl  controllerAcceleration  ETV
vector 188  Highway.node[8].appl  speed  ETV
vector 189  Highway.node[8].appl  posx  ETV
vector 190  Highway.node[8].appl  posy  ETV
vector 208  Highway.node[9].appl  distance  ETV
vector 209  Highway.node[9].appl  relativeSpeed  ETV
vector 210  Highway.node[9].appl  nodeId  ETV
vector 214  Highway.node[9].appl  acceleration  ETV
vector 215  Highway.node[9].appl  controllerAcceleration  ETV
vector 211  Highway.node[9].appl  speed  ETV
vector 212  Highway.node[9].appl  posx  ETV
vector 213  Highway.node[9].appl  posy  ETV
vector 124  Highway.node[5].prot  nodeId  ETV
vector 125  Highway.node[5].prot  busyTime  ETV
vector 126  Highway.node[5].prot  collisions  ETV
vector 147  Highway.node[6].prot  nodeId  ETV
vector 148  Highway.node[6].prot  busyTime  ETV
vector 149  Highway.node[6].prot  collisions  ETV
vector 170  Highway.node[7].prot  nodeId  ETV
vector 171  Highway.node[7].prot  busyTime  ETV
vector 172  Highway.node[7].prot  collisions  ETV
vector 193  Highway.node[8].prot  nodeId  ETV
vector 194  Highway.node[8].prot  busyTime  ETV
vector 195  Highway.node[8].prot  collisions  ETV
vector 216  Highway.node[9].prot  nodeId  ETV
vector 217  Highway.node[9].prot  busyTime  ETV
vector 218  Highway.node[9].prot  collisions  ETV
vector 231  Highway.node[10].appl  distance  ETV
vector 232  Highway.node[10].appl  relativeSpeed  ETV
vector 233  Highway.node[10].appl  nodeId  ETV
vector 237  Highway.node[10].appl  acceleration  ETV
vector 238  Highway.node[10].appl  controllerAcceleration  ETV
vector 234  Highway.node[10].appl  speed  ETV
vector 235  Highway.node[10].appl  posx  ETV
vector 236  Highway.node[10].appl  posy  ETV
vector 254  Highway.node[11].appl  distance  ETV
vector 255  Highway.node[11].appl  relativeSpeed  ETV
vector 256  Highway.node[11].appl  nodeId  ETV
vector 260  Highway.node[11].appl  acceleration  ETV
vector 261  Highway.node[11].appl  controllerAcceleration  ETV
vector 257  Highway.node[11].appl  speed  ETV
vector 258  Highway.node[11].appl  posx  ETV
vector 259  Highway.node[11].appl  posy  ETV
vector 277  Highway.node[12].appl  distance  ETV
vector 278  Highway.node[12].appl  relativeSpeed  ETV
vector 279  Highway.node[12].appl  nodeId  ETV
vector 283  Highway.node[12].appl  acceleration  ETV
vector 284  Highway.node[12].appl  controllerAcceleration  ETV
vector 280  Highway.node[12].appl  speed  ETV
vector 281  Highway.node[12].appl  posx  ETV
vector 282  Highway.node[12].appl  posy  ETV
vector 300  Highway.node[13].appl  distance  ETV
vector 301  Highway.node[13].appl  relativeSpeed  ETV
vector 302  Highway.node[13].appl  nodeId  ETV
vector 306  Highway.node[13].appl  acceleration  ETV
vector 307  Highway.node[13].appl  controllerAcceleration  ETV
vector 303  Highway.node[13].appl  speed  ETV
vector 304  Highway.node[13].appl  posx  ETV
vector 305  Highway.node[13].appl  posy  ETV
vector 291  Highway.node[12].prot  frontDelay  ETV
vector 289  Highway.node[12].prot  frontDelayId  ETV
vector 314  Highway.node[13].prot  frontDelay  ETV
vector 312  Highway.node[13].prot  frontDelayId  ETV
vector 267  Highway.node[11].prot  leaderDelay  ETV
vector 265  Highway.node[11].prot  leaderDelayId  ETV
vector 268  Highway.node[11].prot  frontDelay  ETV
vector 266  Highway.node[11].prot  frontDelayId  ETV
vector 290  Highway.node[12].prot  leaderDelay  ETV
vector 288  Highway.node[12].prot  leaderDelayId  ETV
vector 313  Highway.node[13].prot  leaderDelay  ETV
vector 311  Highway.node[13].prot  leaderDelayId  ETV
vector 239  Highway.node[10].prot  nodeId  ETV
vector 240  Highway.node[10].prot  busyTime  ETV
vector 241  Highway.node[10].prot  collisions  ETV
vector 262  Highway.node[11].prot  nodeId  ETV
vector 263  Highway.node[11].prot  busyTime  ETV
vector 264  Highway.node[11].prot  collisions  ETV
vector 285  Highway.node[12].prot  nodeId  ETV
vector 286  Highway.node[12].prot  busyTime  ETV
vector 287  Highway.node[12].prot  collisions  ETV
vector 308  Highway.node[13].prot  nodeId  ETV
vector 309  Highway.node[13].prot  busyTime  ETV
vector 310  Highway.node[13].prot  collisions  ETV
8	935	2.11	1.5
8	1670	2.21	1.5
8	2405	2.31	1.5
8	3140	2.41	1.5
8	3876	2.51	1.5
8	4611	2.61	1.5
8	5346	2.71	1.5
8	6082	2.81	1.5
8	6817	2.91	1.5
8	7560	3.01	1.5
8	9005	3.11	1.5
8	10855	3.21	1.5
8	12705	3.31	1.5
8	14557	3.41	1.40695
8	16408	3.51	1.26755
8	18259	3.61	1.13046
8	20109	3.71	0.997716
8	21959	3.81	0.870928
8	23809	3.91	0.751297
8	25671	4.01	0.639682
8	28249	4.11	0.536647
8	31279	4.21	0.442496
8	34309	4.31	0.357323
8	37340	4.41	0.281043
8	40370	4.51	0.213426
8	43401	4.61	0.154128
8	46431	4.71	0.102719
8	49462	4.81	0.0587037
8	52492	4.91	0.0215426
8	55537	5.01	-0.00932884
8	58567	5.11	-0.0344869
8	61597	5.21	-0.0545066
8	64627	5.31	-0.0699522
8	67657	5.41	-0.0813683
8	70687	5.51	-0.0892741
8	73717	5.61	-0.0941583
8	76747	5.71	-0.0964763
8	79777	5.81	-0.0966475
8	82807	5.91	-0.0950545
8	85854	6.01	-0.0920427
8	88941	6.11	-0.0879212
8	92031	6.21	-0.0829632
8	95121	6.31	-0.0774079
8	98211	6.41	-0.0714622
8	101301	6.51	-0.0653029
8	104391	6.61	-0.0590789
8	107481	6.71	-0.0529134
8	110571	6.81	-0.0469065
8	113661	6.91	-0.0411375
8	116766	7.01	-0.035667
8	119859	7.11	-0.0305396
8	122953	7.21	-0.0257856
8	126047	7.31	-0.0214232
8	129141	7.41	-0.0174602
8	132235	7.51	-0.013896
8	135329	7.61	-0.0107229
8	138423	7.71	-0.00792756
8	141517	7.81	-0.0054922
8	144611	7.91	-0.00339584
8	147719	8.01	-0.00161519
8	150813	8.11	-0.000125471
8	153907	8.21	0.00109887
8	157001	8.31	0.00208355
8	160095	8.41	0.00285395
8	163189	8.51	0.00343477
8	166283	8.61	0.00384963
8	169377	8.71	0.00412092
8	172471	8.81	0.00426956
8	175565	8.91	0.00431492
8	178673	9.01	0.00427473
8	181767	9.11	0.0041651
8	184861	9.21	0.00400045
8	187955	9.31	0.00379364
8	191049	9.41	0.00355593
8	194143	9.51	0.00329715
8	197237	9.61	0.00302573
8	200331	9.71	0.00274879
8	203425	9.81	0.00247231
8	206519	9.91	0.00220115
8	209627	10.01	0.00193923
8	212721	10.11	0.00168958
8	215815	10.21	0.00145448
8	218909	10.31	0.00123553
8	222003	10.41	0.00103375
8	225097	10.51	0.000849679
8	228191	10.61	0.000683438
8	231285	10.71	0.000534804
8	234379	10.81	0.00040328
8	237473	10.91	0.000288152
8	240581	11.01	0.000188538
8	243675	11.11	0.000103439
8	246769	11.21	3.17726e-05
8	249863	11.31	-2.75887e-05
8	252957	11.41	-7.57908e-05
8	256051	11.51	-0.000113974
8	259145	11.61	-0.000143253
8	262239	11.71	-0.000164703
8	265333	11.81	-0.000179345
8	268427	11.91	-0.00018814
8	271535	12.01	-0.000191981
8	274629	12.11	-0.000191688
8	277723	12.21	-0.00018801
8	280817	12.31	-0.00018162
8	283911	12.41	-0.000173121
8	287005	12.51	-0.000163044
8	290099	12.61	-0.000151852
8	293193	12.71	-0.000139948
8	296287	12.81	-0.000127672
8	299381	12.91	-0.000115312
8	302489	13.01	-0.000103104
8	305583	13.11	-9.12398e-05
8	308677	13.21	-7.98707e-05
8	311771	13.31	-6.91115e-05
8	314865	13.41	-5.90456e-05
8	317959	13.51	-4.9729e-05
8	321053	13.61	-4.11943e-05
8	324147	13.71	-3.3454e-05
8	327241	13.81	-2.65042e-05
8	330335	13.91	-2.03276e-05
8	333443	14.01	-1.4896e-05
8	336537	14.11	-1.0173e-05
8	339631	14.21	-6.11612e-06
8	342725	14.31	-2.67832e-06
8	345819	14.41	1.89902e-07
8	348913	14.51	2.53944e-06
8	352007	14.61	4.42133e-06
8	355101	14.71	5.88584e-06
8	358195	14.81	6.98168e-06
8	361289	14.91	7.75542e-06
8	364397	15.01	8.25106e-06
8	367491	15.11	8.50967e-06
8	370585	15.21	8.56919e-06
8	373679	15.31	8.46433e-06
8	376773	15.41	8.22648e-06
8	379867	15.51	7.88382e-06
8	382961	15.61	7.46131e-06
8	386055	15.71	6.98089e-06
8	389149	15.81	6.46156e-06
8	392243	15.91	5.91964e-06
8	395351	16.01	5.3689e-06
8	398445	16.11	4.82081e-06
8	401539	16.21	4.28471e-06
8	404633	16.31	3.76808e-06
8	407727	16.41	3.27668e-06
8	410821	16.51	2.81479e-06
8	413915	16.61	2.38539e-06
8	417009	16.71	1.99035e-06
8	420103	16.81	1.63058e-06
8	423197	16.91	1.3062e-06
8	426305	17.01	1.01667e-06
8	429399	17.11	7.60915e-07
8	432493	17.21	5.3746e-07
8	435587	17.31	3.4451e-07
8	438681	17.41	1.80044e-07
8	441775	17.51	4.18961e-08
8	444869	17.61	-7.21851e-08
8	447963	17.71	-1.64476e-07
8	451057	17.81	-2.37238e-07
8	454151	17.91	-2.92673e-07
8	457259	18.01	-3.32899e-07
8	460353	18.11	-3.59928e-07
8	463447	18.21	-3.75645e-07
8	466541	18.31	-3.81801e-07
8	469635	18.41	-3.80004e-07
8	472729	18.51	-3.71713e-07
8	475823	18.61	-3.58245e-07
8	478917	18.71	-3.40771e-07
8	482011	18.81	-3.20324e-07
8	485105	18.91	-2.97806e-07
8	488213	19.01	-2.73991e-07
8	491307	19.11	-2.4954e-07
8	494401	19.21	-2.25007e-07
8	497495	19.31	-2.00845e-07
8	500589	19.41	-1.77422e-07
8	503683	19.51	-1.55024e-07
8	506777	19.61	-1.3387e-07
8	509871	19.71	-1.14115e-07
8	512965	19.81	-9.58618e-08
8	516059	19.91	-7.91687e-08
8	519167	20.01	-6.40547e-08
8	522261	20.11	-5.05068e-08
8	525355	20.21	-3.84873e-08
8	528449	20.31	-2.79364e-08
8	531543	20.41	-1.878e-08
8	534637	20.51	-1.09321e-08
8	537731	20.61	-4.29772e-09
8	540825	20.71	1.22213e-09
8	543919	20.81	5.72804e-09
8	547013	20.91	9.32197e-09
8	550121	21.01	1.21027e-08
8	553215	21.11	1.41672e-08
8	556309	21.21	1.56064e-08
8	559403	21.31	1.65073e-08
8	562497	21.41	1.69504e-08
8	565591	21.51	1.70097e-08
8	568685	21.61	1.67532e-08
8	571779	21.71	1.62423e-08
8	574873	21.81	1.55321e-08
8	577967	21.91	1.46706e-08
8	581075	22.01	1.3701e-08
8	584169	22.11	1.26597e-08
8	587263	22.21	1.15783e-08
8	590357	22.31	1.04837e-08
8	593451	22.41	9.39764e-09
8	596545	22.51	8.33822e-09
8	599639	22.61	7.31966e-09
8	602733	22.71	6.35261e-09
8	605827	22.81	5.4456e-09
8	608921	22.91	4.60361e-09
8	612029	23.01	3.83054e-09
8	615123	23.11	3.12745e-09
8	618217	23.21	2.49472e-09
8	621311	23.31	1.9309e-09
8	624405	23.41	1.43352e-09
8	627499	23.51	1.00009e-09
8	630593	23.61	6.26343e-10
8	633687	23.71	3.08376e-10
8	636781	23.81	4.22773e-11
8	639875	23.91	-1.76925e-10
8	642983	24.01	-3.53495e-10
8	646077	24.11	-4.92051e-10
8	649171	24.21	-5.96856e-10
8	652265	24.31	-6.72173e-10
8	655359	24.41	-7.21911e-10
8	658453	24.51	-7.49623e-10
8	661547	24.61	-7.5886e-10
8	664641	24.71	-7.5282e-10
8	667735	24.81	-7.34346e-10
8	670829	24.91	-7.06279e-10
8	673937	25.01	-6.70397e-10
8	677031	25.11	-6.2883e-10
8	680125	25.21	-5.83711e-10
8	683219	25.31	-5.35749e-10
8	686313	25.41	-4.87077e-10
8	689407	25.51	-4.38405e-10
8	692501	25.61	-3.90799e-10
8	695595	25.71	-3.44613e-10
8	698689	25.81	-3.0056e-10
8	701783	25.91	-2.58993e-10
8	704891	26.01	-2.20268e-10
8	707985	26.11	-1.84386e-10
8	711079	26.21	-1.52056e-10
8	714173	26.31	-1.22569e-10
8	717267	26.41	-9.66338e-11
8	720361	26.51	-7.31859e-11
8	723455	26.61	-5.25802e-11
8	726549	26.71	-3.51719e-11
8	729643	26.81	-1.98952e-11
8	732737	26.91	-7.10543e-12
8	735845	27.01	3.55271e-12
8	738939	27.11	1.24345e-11
8	742033	27.21	1.91847e-11
8	745127	27.31	2.45137e-11
8	748221	27.41	2.84217e-11
8	751315	27.51	3.12639e-11
8	754409	27.61	3.30402e-11
8	757503	27.71	3.37508e-11
8	760597	27.81	3.37508e-11
8	763691	27.91	3.33955e-11
8	766799	28.01	3.23297e-11
8	769893	28.11	3.09086e-11
8	772987	28.21	2.91323e-11
8	776081	28.31	2.73559e-11
8	779175	28.41	2.52243e-11
8	782269	28.51	2.30926e-11
8	785363	28.61	2.13163e-11
8	788457	28.71	1.91847e-11
8	791551	28.81	1.74083e-11
8	794645	28.91	1.52767e-11
8	797753	29.01	1.3145e-11
8	800847	29.11	1.13687e-11
8	803941	29.21	9.23706e-12
8	807035	29.31	7.4607e-12
8	810129	29.41	6.03961e-12
8	813223	29.51	4.61853e-12
8	816317	29.61	3.19744e-12
8	819411	29.71	2.13163e-12
8	822505	29.81	1.06581e-12
8	825599	29.91	0
8	828707	30.01	-7.10543e-13
8	831801	30.11	-1.42109e-12
8	834895	30.21	-2.13163e-12
8	837989	30.31	-2.84217e-12
8	841083	30.41	-3.55271e-12
8	844177	30.51	-3.90799e-12
8	847271	30.61	-4.26326e-12
8	850365	30.71	-4.9738e-12
8	853459	30.81	-5.32907e-12
8	856553	30.91	-5.68434e-12
8	859661	31.01	-6.03961e-12
8	862755	31.11	-6.03961e-12
8	865849	31.21	-6.39488e-12
8	868943	31.31	-6.75016e-12
8	872037	31.41	-6.75016e-12
8	875131	31.51	-7.10543e-12
8	878225	31.61	-7.10543e-12
8	881319	31.71	-7.4607e-12
8	884413	31.81	-7.4607e-12
8	887507	31.91	-7.81597e-12
8	890615	32.01	-7.81597e-12
8	893709	32.11	-7.81597e-12
8	896803	32.21	-8.17124e-12
8	899897	32.31	-8.17124e-12
8	902991	32.41	-8.17124e-12
8	906085	32.51	-8.17124e-12
8	909179	32.61	-8.17124e-12
8	912273	32.71	-8.17124e-12
8	915367	32.81	-8.52651e-12
8	918461	32.91	-8.52651e-12
8	921569	33.01	-8.52651e-12
8	924663	33.11	-8.52651e-12
8	927757	33.21	-8.52651e-12
8	930851	33.31	-8.52651e-12
8	933945	33.41	-8.52651e-12
8	937039	33.51	-8.52651e-12
8	940133	33.61	-8.52651e-12
8	943227	33.71	-8.88178e-12
8	946321	33.81	-8.88178e-12
8	949415	33.91	-8.88178e-12
8	952523	34.01	-8.88178e-12
8	955617	34.11	-8.88178e-12
8	958711	34.21	-8.88178e-12
8	961805	34.31	-8.88178e-12
8	964899	34.41	-8.88178e-12
8	967993	34.51	-8.88178e-12
8	971087	34.61	-8.88178e-12
8	974181	34.71	-8.88178e-12
8	977275	34.81	-8.88178e-12
8	980369	34.91	-8.88178e-12
8	983477	35.01	-8.88178e-12
8	986571	35.11	-8.88178e-12
8	989665	35.21	-8.88178e-12
8	992759	35.31	-8.88178e-12
8	995853	35.41	-8.88178e-12
8	998947	35.51	-8.88178e-12
8	1002041	35.61	-8.88178e-12
8	1005135	35.71	-8.88178e-12
8	1008229	35.81	-8.88178e-12
8	1011323	35.91	-8.88178e-12
8	1014431	36.01	-8.88178e-12
8	1017525	36.11	-8.88178e-12
8	1020619	36.21	-8.88178e-12
8	1023713	36.31	-8.88178e-12
8	1026807	36.41	-8.88178e-12
8	1029901	36.51	-8.88178e-12
8	1032995	36.61	-8.88178e-12
8	1036089	36.71	-8.88178e-12
8	1039183	36.81	-8.88178e-12
8	1042277	36.91	-8.88178e-12
8	1045385	37.01	-8.88178e-12
8	1048479	37.11	-8.88178e-12
8	1051573	37.21	-8.88178e-12
8	1054667	37.31	-8.88178e-12
8	1057761	37.41	-8.88178e-12
8	1060855	37.51	-8.88178e-12
8	1063949	37.61	-8.88178e-12
8	1067043	37.71	-8.88178e-12
8	1070137	37.81	-8.88178e-12
8	1073231	37.91	-8.88178e-12
8	1076339	38.01	-8.88178e-12
8	1079433	38.11	-8.88178e-12
8	1082527	38.21	-8.88178e-12
8	1085621	38.31	-8.88178e-12
8	1088715	38.41	-8.88178e-12
8	1091809	38.51	-8.88178e-12
8	1094903	38.61	-8.88178e-12
8	1097997	38.71	-8.88178e-12
8	1101091	38.81	-8.88178e-12
8	1104185	38.91	-8.88178e-12
8	1107293	39.01	-8.88178e-12
8	1110387	39.11	-8.88178e-12
8	1113481	39.21	-8.88178e-12
8	1116575	39.31	-8.88178e-12
8	1119669	39.41	-8.88178e-12
8	1122763	39.51	-8.88178e-12
8	1125857	39.61	-8.88178e-12
8	1128951	39.71	-8.88178e-12
8	1132045	39.81	-8.88178e-12
8	1135139	39.91	-8.88178e-12
8	1138247	40.01	-8.88178e-12
8	1141341	40.11	-8.88178e-12
8	1144435	40.21	-8.88178e-12
8	1147529	40.31	-8.88178e-12
8	1150623	40.41	-8.88178e-12
8	1153717	40.51	-8.88178e-12
8	1156811	40.61	-8.88178e-12
8	1159905	40.71	-8.88178e-12
8	1162999	40.81	-8.88178e-12
8	1166093	40.91	-8.88178e-12
8	1169201	41.01	-8.88178e-12
8	1172295	41.11	-8.88178e-12
8	1175389	41.21	-8.88178e-12
8	1178483	41.31	-8.88178e-12
8	1181577	41.41	-8.88178e-12
8	1184671	41.51	-8.88178e-12
8	1187765	41.61	-8.88178e-12
8	1190859	41.71	-8.88178e-12
8	1193953	41.81	-8.88178e-12
8	1197047	41.91	-8.88178e-12
8	1200155	42.01	-8.88178e-12
8	1203249	42.11	-8.88178e-12
8	1206343	42.21	-8.88178e-12
8	1209437	42.31	-8.88178e-12
8	1212531	42.41	-8.88178e-12
8	1215625	42.51	-8.88178e-12
8	1218719	42.61	-8.88178e-12
8	1221813	42.71	-8.88178e-12
8	1224907	42.81	-8.88178e-12
8	1228001	42.91	-8.88178e-12
8	1231109	43.01	-8.88178e-12
8	1234203	43.11	-8.88178e-12
8	1237297	43.21	-8.88178e-12
8	1240391	43.31	-8.88178e-12
8	1243485	43.41	-8.88178e-12
8	1246579	43.51	-8.88178e-12
8	1249673	43.61	-8.88178e-12
8	1252767	43.71	-8.88178e-12
8	1255861	43.81	-8.88178e-12
8	1258955	43.91	-8.88178e-12
8	1262063	44.01	-8.88178e-12
8	1265157	44.11	-8.88178e-12
8	1268251	44.21	-8.88178e-12
8	1271345	44.31	-8.88178e-12
8	1274439	44.41	-8.88178e-12
8	1277533	44.51	-8.88178e-12
8	1280627	44.61	-8.88178e-12
8	1283721	44.71	-8.88178e-12
8	1286815	44.81	-8.88178e-12
8	1289909	44.91	-8.88178e-12
8	1293017	45.01	-8.88178e-12
8	1296111	45.11	-8.88178e-12
8	1299205	45.21	-8.88178e-12
8	1302299	45.31	-8.88178e-12
8	1305393	45.41	-8.88178e-12
8	1308487	45.51	-8.88178e-12
8	1311581	45.61	-8.88178e-12
8	1314675	45.71	-8.88178e-12
8	1317769	45.81	-8.88178e-12
8	1320863	45.91	-8.88178e-12
8	1323971	46.01	-8.88178e-12
8	1327065	46.11	-8.88178e-12
8	1330159	46.21	-8.88178e-12
8	1333253	46.31	-8.88178e-12
8	1336347	46.41	-8.88178e-12
8	1339441	46.51	-8.88178e-12
8	1342535	46.61	-8.88178e-12
8	1345629	46.71	-8.88178e-12
8	1348723	46.81	-8.88178e-12
8	1351817	46.91	-8.88178e-12
8	1354925	47.01	-8.88178e-12
8	1358019	47.11	-8.88178e-12
8	1361113	47.21	-8.88178e-12
8	1364207	47.31	-8.88178e-12
8	1367301	47.41	-8.88178e-12
8	1370395	47.51	-8.88178e-12
8	1373489	47.61	-8.88178e-12
8	1376583	47.71	-8.88178e-12
8	1379677	47.81	-8.88178e-12
8	1382771	47.91	-8.88178e-12
8	1385879	48.01	-8.88178e-12
8	1388973	48.11	-8.88178e-12
8	1392067	48.21	-8.88178e-12
8	1395161	48.31	-8.88178e-12
8	1398255	48.41	-8.88178e-12
8	1401349	48.51	-8.88178e-12
8	1404443	48.61	-8.88178e-12
8	1407537	48.71	-8.88178e-12
8	1410631	48.81	-8.88178e-12
8	1413725	48.91	-8.88178e-12
8	1416833	49.01	-8.88178e-12
8	1419927	49.11	-8.88178e-12
8	1423021	49.21	-8.88178e-12
8	1426115	49.31	-8.88178e-12
8	1429209	49.41	-8.88178e-12
8	1432303	49.51	-8.88178e-12
8	1435397	49.61	-8.88178e-12
8	1438491	49.71	-8.88178e-12
8	1441585	49.81	-8.88178e-12
8	1444679	49.91	-8.88178e-12
8	1447787	50.01	-8.88178e-12
8	1450881	50.11	-8.88178e-12
8	1453975	50.21	-8.88178e-12
8	1457069	50.31	-8.88178e-12
8	1460163	50.41	-8.88178e-12
8	1463257	50.51	-8.88178e-12
8	1466351	50.61	-8.88178e-12
8	1469445	50.71	-8.88178e-12
8	1472539	50.81	-8.88178e-12
8	1475633	50.91	-8.88178e-12
8	1478741	51.01	-8.88178e-12
8	1481835	51.11	-8.88178e-12
8	1484929	51.21	-8.88178e-12
8	1488023	51.31	-8.88178e-12
8	1491117	51.41	-8.88178e-12
8	1494211	51.51	-8.88178e-12
8	1497305	51.61	-8.88178e-12
8	1500399	51.71	-8.88178e-12
8	1503493	51.81	-8.88178e-12
8	1506587	51.91	-8.88178e-12
8	1509695	52.01	-8.88178e-12
8	1512789	52.11	-8.88178e-12
8	1515883	52.21	-8.88178e-12
8	1518977	52.31	-8.88178e-12
8	1522071	52.41	-8.88178e-12
8	1525165	52.51	-8.88178e-12
8	1528259	52.61	-8.88178e-12
8	1531353	52.71	-8.88178e-12
8	1534447	52.81	-8.88178e-12
8	1537541	52.91	-8.88178e-12
8	1540649	53.01	-8.88178e-12
8	1543743	53.11	-8.88178e-12
8	1546837	53.21	-8.88178e-12
8	1549931	53.31	-8.88178e-12
8	1553025	53.41	-8.88178e-12
8	1556119	53.51	-8.88178e-12
8	1559213	53.61	-8.88178e-12
8	1562307	53.71	-8.88178e-12
8	1565401	53.81	-8.88178e-12
8	1568495	53.91	-8.88178e-12
8	1571603	54.01	-8.88178e-12
8	1574697	54.11	-8.88178e-12
8	1577791	54.21	-8.88178e-12
8	1580885	54.31	-8.88178e-12
8	1583979	54.41	-8.88178e-12
8	1587073	54.51	-8.88178e-12
8	1590167	54.61	-8.88178e-12
8	1593261	54.71	-8.88178e-12
8	1596355	54.81	-8.88178e-12
8	1599449	54.91	-8.88178e-12
8	1602557	55.01	-8.88178e-12
8	1605651	55.11	-8.88178e-12
8	1608745	55.21	-8.88178e-12
8	1611839	55.31	-8.88178e-12
8	1614933	55.41	-8.88178e-12
8	1618027	55.51	-8.88178e-12
8	1621121	55.61	-8.88178e-12
8	1624215	55.71	-8.88178e-12
8	1627309	55.81	-8.88178e-12
8	1630403	55.91	-8.88178e-12
8	1633511	56.01	-8.88178e-12
8	1636605	56.11	-8.88178e-12
8	1639699	56.21	-8.88178e-12
8	1642793	56.31	-8.88178e-12
8	1645887	56.41	-8.88178e-12
8	1648981	56.51	-8.88178e-12
8	1652075	56.61	-8.88178e-12
8	1655169	56.71	-8.88178e-12
8	1658263	56.81	-8.88178e-12
8	1661357	56.91	-8.88178e-12
8	1664465	57.01	-8.88178e-12
8	1667559	57.11	-8.88178e-12
8	1670653	57.21	-8.88178e-12
8	1673747	57.31	-8.88178e-12
8	1676841	57.41	-8.88178e-12
8	1679935	57.51	-8.88178e-12
8	1683029	57.61	-8.88178e-12
8	1686123	57.71	-8.88178e-12
8	1689217	57.81	-8.88178e-12
8	1692311	57.91	-8.88178e-12
8	1695419	58.01	-8.88178e-12
8	1698513	58.11	-8.88178e-12
8	1701607	58.21	-8.88178e-12
8	1704701	58.31	-8.88178e-12
8	1707795	58.41	-8.88178e-12
8	1710889	58.51	-8.88178e-12
8	1713983	58.61	-8.88178e-12
8	1717077	58.71	-8.88178e-12
8	1720171	58.81	-8.88178e-12
8	1723265	58.91	-8.88178e-12
8	1726373	59.01	-8.88178e-12
8	1729467	59.11	-8.88178e-12
8	1732561	59.21	-8.88178e-12
8	1735655	59.31	-8.88178e-12
8	1738749	59.41	-8.88178e-12
8	1741843	59.51	-8.88178e-12
8	1744937	59.61	-8.88178e-12
8	1748031	59.71	-8.88178e-12
8	1751125	59.81	-8.88178e-12
8	1754219	59.91	-8.88178e-12
8	1757327	60.01	-8.88178e-12
8	1760421	60.11	-8.88178e-12
8	1763515	60.21	-8.88178e-12
8	1766609	60.31	-8.88178e-12
8	1769703	60.41	-8.88178e-12
8	1772797	60.51	-8.88178e-12
8	1775891	60.61	-8.88178e-12
8	1778985	60.71	-8.88178e-12
8	1782079	60.81	-8.88178e-12
8	1785173	60.91	-8.88178e-12
8	1788281	61.01	-8.88178e-12
8	1791375	61.11	-8.88178e-12
8	1794469	61.21	-8.88178e-12
8	1797563	61.31	-8.88178e-12
8	1800657	61.41	-8.88178e-12
8	1803751	61.51	-8.88178e-12
8	1806845	61.61	-8.88178e-12
8	1809939	61.71	-8.88178e-12
8	1813033	61.81	-8.88178e-12
8	1816127	61.91	-8.88178e-12
8	1819235	62.01	-8.88178e-12
8	1822329	62.11	-8.88178e-12
8	1825423	62.21	-8.88178e-12
8	1828517	62.31	-8.88178e-12
8	1831611	62.41	-8.88178e-12
8	1834705	62.51	-8.88178e-12
8	1837799	62.61	-8.88178e-12
8	1840893	62.71	-8.88178e-12
8	1843987	62.81	-8.88178e-12
8	1847081	62.91	-8.88178e-12
8	1850189	63.01	-8.88178e-12
8	1853283	63.11	-8.88178e-12
8	1856377	63.21	-8.88178e-12
8	1859471	63.31	-8.88178e-12
8	1862565	63.41	-8.88178e-12
8	1865659	63.51	-8.88178e-12
8	1868753	63.61	-8.88178e-12
8	1871847	63.71	-8.88178e-12
8	1874941	63.81	-8.88178e-12
8	1878035	63.91	-8.88178e-12
8	1881143	64.01	-8.88178e-12
8	1884237	64.11	-8.88178e-12
8	1887331	64.21	-8.88178e-12
8	1890425	64.31	-8.88178e-12
8	1893519	64.41	-8.88178e-12
8	1896613	64.51	-8.88178e-12
8	1899707	64.61	-8.88178e-12
8	1902801	64.71	-8.88178e-12
8	1905895	64.81	-8.88178e-12
8	1908989	64.91	-8.88178e-12
8	1912097	65.01	-8.88178e-12
8	1915191	65.11	-8.88178e-12
8	1918285	65.21	-8.88178e-12
8	1921379	65.31	-8.88178e-12
8	1924473	65.41	-8.88178e-12
8	1927567	65.51	-8.88178e-12
8	1930661	65.61	-8.88178e-12
8	1933755	65.71	-8.88178e-12
8	1936849	65.81	-8.88178e-12
8	1939943	65.91	-8.88178e-12
8	1943051	66.01	-8.88178e-12
8	1946145	66.11	-8.88178e-12
8	1949239	66.21	-8.88178e-12
8	1952333	66.31	-8.88178e-12
8	1955427	66.41	-8.88178e-12
8	1958521	66.51	-8.88178e-12
8	1961615	66.61	-8.88178e-12
8	1964709	66.71	-8.88178e-12
8	1967803	66.81	-8.88178e-12
8	1970897	66.91	-8.88178e-12
8	1974005	67.01	-8.88178e-12
8	1977099	67.11	-8.88178e-12
8	1980193	67.21	-8.88178e-12
8	1983287	67.31	-8.88178e-12
8	1986381	67.41	-8.88178e-12
8	1989475	67.51	-8.88178e-12
8	1992569	67.61	-8.88178e-12
8	1995663	67.71	-8.88178e-12
8	1998757	67.81	-8.88178e-12
8	2001851	67.91	-8.88178e-12
8	2004959	68.01	-8.88178e-12
8	2008053	68.11	-8.88178e-12
8	2011147	68.21	-8.88178e-12
8	2014241	68.31	-8.88178e-12
8	2017335	68.41	-8.88178e-12
8	2020429	68.51	-8.88178e-12
8	2023523	68.61	-8.88178e-12
8	2026617	68.71	-8.88178e-12
8	2029711	68.81	-8.88178e-12
8	2032805	68.91	-8.88178e-12
8	2035913	69.01	-8.88178e-12
8	2039007	69.11	-8.88178e-12
8	2042101	69.21	-8.88178e-12
8	2045195	69.31	-8.88178e-12
8	2048289	69.41	-8.88178e-12
8	2051383	69.51	-8.88178e-12
8	2054477	69.61	-8.88178e-12
8	2057571	69.71	-8.88178e-12
8	2060665	69.81	-8.88178e-12
8	2063759	69.91	-8.88178e-12
8	2066867	70.01	-8.88178e-12
8	2069961	70.11	-8.88178e-12
8	2073055	70.21	-8.88178e-12
8	2076149	70.31	-8.88178e-12
8	2079243	70.41	-8.88178e-12
8	2082337	70.51	-8.88178e-12
8	2085431	70.61	-8.88178e-12
8	2088525	70.71	-8.88178e-12
8	2091619	70.81	-8.88178e-12
8	2094713	70.91	-8.88178e-12
8	2097821	71.01	-8.88178e-12
8	2100915	71.11	-8.88178e-12
8	2104009	71.21	-8.88178e-12
8	2107103	71.31	-8.88178e-12
8	2110197	71.41	-8.88178e-12
8	2113291	71.51	-8.88178e-12
8	2116385	71.61	-8.88178e-12
8	2119479	71.71	-8.88178e-12
8	2122573	71.81	-8.88178e-12
8	2125667	71.91	-8.88178e-12
8	2128775	72.01	-8.88178e-12
8	2131869	72.11	-8.88178e-12
8	2134963	72.21	-8.88178e-12
8	2138057	72.31	-8.88178e-12
8	2141151	72.41	-8.88178e-12
8	2144245	72.51	-8.88178e-12
8	2147339	72.61	-8.88178e-12
8	2150433	72.71	-8.88178e-12
8	2153527	72.81	-8.88178e-12
8	2156621	72.91	-8.88178e-12
8	2159729	73.01	-8.88178e-12
8	2162823	73.11	-8.88178e-12
8	2165917	73.21	-8.88178e-12
8	2169011	73.31	-8.88178e-12
8	2172105	73.41	-8.88178e-12
8	2175199	73.51	-8.88178e-12
8	2178293	73.61	-8.88178e-12
8	2181387	73.71	-8.88178e-12
8	2184481	73.81	-8.88178e-12
8	2187575	73.91	-8.88178e-12
8	2190683	74.01	-8.88178e-12
8	2193777	74.11	-8.88178e-12
8	2196871	74.21	-8.88178e-12
8	2199965	74.31	-8.88178e-12
8	2203059	74.41	-8.88178e-12
8	2206153	74.51	-8.88178e-12
8	2209247	74.61	-8.88178e-12
8	2212341	74.71	-8.88178e-12
8	2215435	74.81	-8.88178e-12
8	2218529	74.91	-8.88178e-12
8	2221637	75.01	-8.88178e-12
8	2224731	75.11	-8.88178e-12
8	2227825	75.21	-8.88178e-12
8	2230919	75.31	-8.88178e-12
8	2234013	75.41	-8.88178e-12
8	2237107	75.51	-8.88178e-12
8	2240201	75.61	-8.88178e-12
8	2243295	75.71	-8.88178e-12
8	2246389	75.81	-8.88178e-12
8	2249483	75.91	-8.88178e-12
8	2252591	76.01	-8.88178e-12
8	2255685	76.11	-8.88178e-12
8	2258779	76.21	-8.88178e-12
8	2261873	76.31	-8.88178e-12
8	2264967	76.41	-8.88178e-12
8	2268061	76.51	-8.88178e-12
8	2271155	76.61	-8.88178e-12
8	2274249	76.71	-8.88178e-12
8	2277343	76.81	-8.88178e-12
8	2280437	76.91	-8.88178e-12
8	2283545	77.01	-8.88178e-12
8	2286639	77.11	-8.88178e-12
8	2289733	77.21	-8.88178e-12
8	2292827	77.31	-8.88178e-12
8	2295921	77.41	-8.88178e-12
8	2299015	77.51	-8.88178e-12
8	2302109	77.61	-8.88178e-12
8	2305203	77.71	-8.88178e-12
8	2308297	77.81	-8.88178e-12
8	2311391	77.91	-8.88178e-12
8	2314499	78.01	-8.88178e-12
8	2317593	78.11	-8.88178e-12
8	2320687	78.21	-8.88178e-12
8	2323781	78.31	-8.88178e-12
8	2326875	78.41	-8.88178e-12
8	2329969	78.51	-8.88178e-12
8	2333063	78.61	-8.88178e-12
8	2336157	78.71	-8.88178e-12
8	2339251	78.81	-8.88178e-12
8	2342345	78.91	-8.88178e-12
8	2345453	79.01	-8.88178e-12
8	2348547	79.11	-8.88178e-12
8	2351641	79.21	-8.88178e-12
8	2354735	79.31	-8.88178e-12
8	2357829	79.41	-8.88178e-12
8	2360923	79.51	-8.88178e-12
8	2364017	79.61	-8.88178e-12
8	2367111	79.71	-8.88178e-12
8	2370205	79.81	-8.88178e-12
8	2373299	79.91	-8.88178e-12
8	2376407	80.01	-8.88178e-12
8	2379501	80.11	-8.88178e-12
8	2382595	80.21	-8.88178e-12
8	2385689	80.31	-8.88178e-12
8	2388783	80.41	-8.88178e-12
8	2391877	80.51	-8.88178e-12
8	2394971	80.61	-8.88178e-12
8	2398065	80.71	-8.88178e-12
8	2401159	80.81	-8.88178e-12
8	2404253	80.91	-8.88178e-12
8	2407361	81.01	-8.88178e-12
8	2410455	81.11	-8.88178e-12
8	2413549	81.21	-8.88178e-12
8	2416643	81.31	-8.88178e-12
8	2419737	81.41	-8.88178e-12
8	2422831	81.51	-8.88178e-12
8	2425925	81.61	-8.88178e-12
8	2429019	81.71	-8.88178e-12
8	2432113	81.81	-8.88178e-12
8	2435207	81.91	-8.88178e-12
8	2438315	82.01	-8.88178e-12
8	2441409	82.11	-8.88178e-12
8	2444503	82.21	-8.88178e-12
8	2447597	82.31	-8.88178e-12
8	2450691	82.41	-8.88178e-12
8	2453785	82.51	-8.88178e-12
8	2456879	82.61	-8.88178e-12
8	2459973	82.71	-8.88178e-12
8	2463067	82.81	-8.88178e-12
8	2466161	82.91	-8.88178e-12
8	2469269	83.01	-8.88178e-12
8	2472363	83.11	-8.88178e-12
8	2475457	83.21	-8.88178e-12
8	2478551	83.31	-8.88178e-12
8	2481645	83.41	-8.88178e-12
8	2484739	83.51	-8.88178e-12
8	2487833	83.61	-8.88178e-12
8	2490927	83.71	-8.88178e-12
8	2494021	83.81	-8.88178e-12
8	2497115	83.91	-8.88178e-12
8	2500223	84.01	-8.88178e-12
8	2503317	84.11	-8.88178e-12
8	2506411	84.21	-8.88178e-12
8	2509505	84.31	-8.88178e-12
8	2512599	84.41	-8.88178e-12
8	2515693	84.51	-8.88178e-12
8	2518787	84.61	-8.88178e-12
8	2521881	84.71	-8.88178e-12
8	2524975	84.81	-8.88178e-12
8	2528069	84.91	-8.88178e-12
8	2531177	85.01	-8.88178e-12
8	2534271	85.11	-8.88178e-12
8	2537365	85.21	-8.88178e-12
8	2540459	85.31	-8.88178e-12
8	2543553	85.41	-8.88178e-12
8	2546647	85.51	-8.88178e-12
8	2549741	85.61	-8.88178e-12
8	2552835	85.71	-8.88178e-12
8	2555929	85.81	-8.88178e-12
8	2559023	85.91	-8.88178e-12
8	2562131	86.01	-8.88178e-12
8	2565225	86.11	-8.88178e-12
8	2568319	86.21	-8.88178e-12
8	2571413	86.31	-8.88178e-12
8	2574507	86.41	-8.88178e-12
8	2577601	86.51	-8.88178e-12
8	2580695	86.61	-8.88178e-12
8	2583789	86.71	-8.88178e-12
8	2586883	86.81	-8.88178e-12
8	2589977	86.91	-8.88178e-12
8	2593085	87.01	-8.88178e-12
8	2596179	87.11	-8.88178e-12
8	2599273	87.21	-8.88178e-12
8	2602367	87.31	-8.88178e-12
8	2605461	87.41	-8.88178e-12
8	2608555	87.51	-8.88178e-12
8	2611649	87.61	-8.88178e-12
8	2614743	87.71	-8.88178e-12
8	2617837	87.81	-8.88178e-12
8	2620931	87.91	-8.88178e-12
8	2624039	88.01	-8.88178e-12
8	2627133	88.11	-8.88178e-12
8	2630227	88.21	-8.88178e-12
8	2633321	88.31	-8.88178e-12
8	2636415	88.41	-8.88178e-12
8	2639509	88.51	-8.88178e-12
8	2642603	88.61	-8.88178e-12
8	2645697	88.71	-8.88178e-12
8	2648791	88.81	-8.88178e-12
8	2651885	88.91	-8.88178e-12
8	2654993	89.01	-8.88178e-12
8	2658087	89.11	-8.88178e-12
8	2661181	89.21	-8.88178e-12
8	2664275	89.31	-8.88178e-12
8	2667369	89.41	-8.88178e-12
8	2670463	89.51	-8.88178e-12
8	2673557	89.61	-8.88178e-12
8	2676651	89.71	-8.88178e-12
8	2679745	89.81	-8.88178e-12
8	2682839	89.91	-8.88178e-12
8	2685947	90.01	-8.88178e-12
8	2689041	90.11	-8.88178e-12
8	2692135	90.21	-8.88178e-12
8	2695229	90.31	-8.88178e-12
8	2698323	90.41	-8.88178e-12
8	2701417	90.51	-8.88178e-12
8	2704511	90.61	-8.88178e-12
8	2707605	90.71	-8.88178e-12
8	2710699	90.81	-8.88178e-12
8	2713793	90.91	-8.88178e-12
8	2716901	91.01	-8.88178e-12
8	2719995	91.11	-8.88178e-12
8	2723089	91.21	-8.88178e-12
8	2726183	91.31	-8.88178e-12
8	2729277	91.41	-8.88178e-12
8	2732371	91.51	-8.88178e-12
8	2735465	91.61	-8.88178e-12
8	2738559	91.71	-8.88178e-12
8	2741653	91.81	-8.88178e-12
8	2744747	91.91	-8.88178e-12
8	2747855	92.01	-8.88178e-12
8	2750949	92.11	-8.88178e-12
8	2754043	92.21	-8.88178e-12
8	2757137	92.31	-8.88178e-12
8	2760231	92.41	-8.88178e-12
8	2763325	92.51	-8.88178e-12
8	2766419	92.61	-8.88178e-12
8	2769513	92.71	-8.88178e-12
8	2772607	92.81	-8.88178e-12
8	2775701	92.91	-8.88178e-12
8	2778809	93.01	-8.88178e-12
8	2781903	93.11	-8.88178e-12
8	2784997	93.21	-8.88178e-12
8	2788091	93.31	-8.88178e-12
8	2791185	93.41	-8.88178e-12
8	2794279	93.51	-8.88178e-12
8	2797373	93.61	-8.88178e-12
8	2800467	93.71	-8.88178e-12
8	2803561	93.81	-8.88178e-12
8	2806655	93.91	-8.88178e-12
8	2809763	94.01	-8.88178e-12
8	2812857	94.11	-8.88178e-12
8	2815951	94.21	-8.88178e-12
8	2819045	94.31	-8.88178e-12
8	2822139	94.41	-8.88178e-12
8	2825233	94.51	-8.88178e-12
8	2828327	94.61	-8.88178e-12
8	2831421	94.71	-8.88178e-12
8	2834515	94.81	-8.88178e-12
8	2837609	94.91	-8.88178e-12
8	2840717	95.01	-8.88178e-12
8	2843811	95.11	-8.88178e-12
8	2846905	95.21	-8.88178e-12
8	2849999	95.31	-8.88178e-12
8	2853093	95.41	-8.88178e-12
8	2856187	95.51	-8.88178e-12
8	2859281	95.61	-8.88178e-12
8	2862375	95.71	-8.88178e-12
8	2865469	95.81	-8.88178e-12
8	2868563	95.91	-8.88178e-12
8	2871671	96.01	-8.88178e-12
8	2874765	96.11	-8.88178e-12
8	2877859	96.21	-8.88178e-12
8	2880953	96.31	-8.88178e-12
8	2884047	96.41	-8.88178e-12
8	2887141	96.51	-8.88178e-12
8	2890235	96.61	-8.88178e-12
8	2893329	96.71	-8.88178e-12
8	2896423	96.81	-8.88178e-12
8	2899517	96.91	-8.88178e-12
8	2902625	97.01	-8.88178e-12
8	2905719	97.11	-8.88178e-12
8	2908813	97.21	-8.88178e-12
8	2911907	97.31	-8.88178e-12
8	2915001	97.41	-8.88178e-12
8	2918095	97.51	-8.88178e-12
8	2921189	97.61	-8.88178e-12
8	2924283	97.71	-8.88178e-12
8	2927377	97.81	-8.88178e-12
8	2930471	97.91	-8.88178e-12
8	2933579	98.01	-8.88178e-12
8	2936673	98.11	-8.88178e-12
8	2939767	98.21	-8.88178e-12
8	2942861	98.31	-8.88178e-12
8	2945955	98.41	-8.88178e-12
8	2949049	98.51	-8.88178e-12
8	2952143	98.61	-8.88178e-12
8	2955237	98.71	-8.88178e-12
8	2958331	98.81	-8.88178e-12
8	2961425	98.91	-8.88178e-12
8	2964533	99.01	-8.88178e-12
8	2967627	99.11	-8.88178e-12
8	2970721	99.21	-8.88178e-12
8	2973815	99.31	-8.88178e-12
8	2976909	99.41	-8.88178e-12
8	2980003	99.51	-8.88178e-12
8	2983097	99.61	-8.88178e-12
8	2986191	99.71	-8.88178e-12
8	2989285	99.81	-8.88178e-12
8	2992379	99.91	-8.88178e-12
8	2995487	100.01	-8.88178e-12
8	2998581	100.11	-8.88178e-12
8	3001675	100.21	-8.88178e-12
8	3004769	100.31	-8.88178e-12
8	3007863	100.41	-8.88178e-12
8	3010957	100.51	-8.88178e-12
8	3014051	100.61	-8.88178e-12
8	3017145	100.71	-8.88178e-12
8	3020239	100.81	-8.88178e-12
8	3023333	100.91	-8.88178e-12
8	3026441	101.01	-8.88178e-12
8	3029535	101.11	-8.88178e-12
8	3032629	101.21	-8.88178e-12
8	3035723	101.31	-8.88178e-12
8	3038817	101.41	-8.88178e-12
8	3041911	101.51	-8.88178e-12
8	3045005	101.61	-8.88178e-12
8	3048099	101.71	-8.88178e-12
8	3051193	101.81	-8.88178e-12
8	3054287	101.91	-8.88178e-12
8	3057395	102.01	-8.88178e-12
8	3060489	102.11	-8.88178e-12
8	3063583	102.21	-8.88178e-12
8	3066677	102.31	-8.88178e-12
8	3069771	102.41	-8.88178e-12
8	3072865	102.51	-8.88178e-12
8	3075959	102.61	-8.88178e-12
8	3079053	102.71	-8.88178e-12
8	3082147	102.81	-8.88178e-12
8	3085241	102.91	-8.88178e-12
8	3088349	103.01	-8.88178e-12
8	3091443	103.11	-8.88178e-12
8	3094537	103.21	-8.88178e-12
8	3097631	103.31	-8.88178e-12
8	3100725	103.41	-8.88178e-12
8	3103819	103.51	-8.88178e-12
8	3106913	103.61	-8.88178e-12
8	3110007	103.71	-8.88178e-12
8	3113101	103.81	-8.88178e-12
8	3116195	103.91	-8.88178e-12
8	3119303	104.01	-8.88178e-12
8	3122397	104.11	-8.88178e-12
8	3125491	104.21	-8.88178e-12
8	3128585	104.31	-8.88178e-12
8	3131679	104.41	-8.88178e-12
8	3134773	104.51	-8.88178e-12
8	3137867	104.61	-8.88178e-12
8	3140961	104.71	-8.88178e-12
8	3144055	104.81	-8.88178e-12
8	3147149	104.91	-8.88178e-12
8	3150257	105.01	-8.88178e-12
8	3153351	105.11	-8.88178e-12
8	3156445	105.21	-8.88178e-12
8	3159539	105.31	-8.88178e-12
8	3162633	105.41	-8.88178e-12
8	3165727	105.51	-8.88178e-12
8	3168821	105.61	-8.88178e-12
8	3171915	105.71	-8.88178e-12
8	3175009	105.81	-8.88178e-12
8	3178103	105.91	-8.88178e-12
8	3181211	106.01	-8.88178e-12
8	3184305	106.11	-8.88178e-12
8	3187399	106.21	-8.88178e-12
8	3190493	106.31	-8.88178e-12
8	3193587	106.41	-8.88178e-12
8	3196681	106.51	-8.88178e-12
8	3199775	106.61	-8.88178e-12
8	3202869	106.71	-8.88178e-12
8	3205963	106.81	-8.88178e-12
8	3209057	106.91	-8.88178e-12
8	3212165	107.01	-8.88178e-12
8	3215259	107.11	-8.88178e-12
8	3218353	107.21	-8.88178e-12
8	3221447	107.31	-8.88178e-12
8	3224541	107.41	-8.88178e-12
7	935	2.11	0.244867
7	1670	2.21	0.470354
7	2405	2.31	0.655332
7	3140	2.41	0.807078
7	3876	2.51	0.931562
7	4611	2.61	1.03368
7	5346	2.71	1.11746
7	6082	2.81	1.18618
7	6817	2.91	1.24256
7	7560	3.01	1.28881
7	9005	3.11	1.32675
7	10855	3.21	1.35787
7	12705	3.31	1.38341
7	14557	3.41	1.39759
7	16408	3.51	1.38507
7	18259	3.61	1.34996
7	20109	3.71	1.29694
7	21959	3.81	1.23019
7	23809	3.91	1.15336
7	25671	4.01	1.06965
7	28249	4.11	0.981797
7	31279	4.21	0.892114
7	34309	4.31	0.802543
7	37340	4.41	0.714668
7	40370	4.51	0.629763
7	43401	4.61	0.548815
7	46431	4.71	0.472566
7	49462	4.81	0.40154
7	52492	4.91	0.336071
7	55537	5.01	0.276337
7	58567	5.11	0.222377
7	61597	5.21	0.174123
7	64627	5.31	0.131415
7	67657	5.41	0.0940225
7	70687	5.51	0.0616611
7	73717	5.61	0.0340075
7	76747	5.71	0.0107121
7	79777	5.81	-0.0085905
7	82807	5.91	-0.0242712
7	85854	6.01	-0.0366996
7	88941	6.11	-0.0462369
7	92031	6.21	-0.0532315
7	95121	6.31	-0.0580148
7	98211	6.41	-0.0608982
7	101301	6.51	-0.0621714
7	104391	6.61	-0.0621007
7	107481	6.71	-0.0609289
7	110571	6.81	-0.0588748
7	113661	6.91	-0.0561337
7	116766	7.01	-0.0528783
7	119859	7.11	-0.0492593
7	122953	7.21	-0.045407
7	126047	7.31	-0.0414323
7	129141	7.41	-0.0374285
7	132235	7.51	-0.0334728
7	135329	7.61	-0.0296273
7	138423	7.71	-0.0259413
7	141517	7.81	-0.0224522
7	144611	7.91	-0.0191872
7	147719	8.01	-0.0161646
7	150813	8.11	-0.0133951
7	153907	8.21	-0.010883
7	157001	8.31	-0.00862689
7	160095	8.41	-0.0066214
7	163189	8.51	-0.00485744
7	166283	8.61	-0.00332326
7	169377	8.71	-0.00200509
7	172471	8.81	-0.000887767
7	175565	8.91	4.47491e-05
7	178673	9.01	0.000808935
7	181767	9.11	0.00142132
7	184861	9.21	0.0018982
7	187955	9.31	0.00225537
7	191049	9.41	0.00250791
7	194143	9.51	0.0026701
7	197237	9.61	0.00275527
7	200331	9.71	0.00277572
7	203425	9.81	0.0027427
7	206519	9.91	0.00266643
7	209627	10.01	0.00255603
7	212721	10.11	0.00241963
7	215815	10.21	0.00226433
7	218909	10.31	0.00209631
7	222003	10.41	0.00192089
7	225097	10.51	0.00174252
7	228191	10.61	0.00156495
7	231285	10.71	0.0013912
7	234379	10.81	0.00122372
7	237473	10.91	0.00106438
7	240581	11.01	0.000914575
7	243675	11.11	0.000775278
7	246769	11.21	0.000647101
7	249863	11.31	0.000530345
7	252957	11.41	0.000425052
7	256051	11.51	0.000331051
7	259145	11.61	0.000248
7	262239	11.71	0.000175421
7	265333	11.81	0.000112735
7	268427	11.91	5.92885e-05
7	271535	12.01	1.43804e-05
7	274629	12.11	-2.27179e-05
7	277723	12.21	-5.27439e-05
7	280817	12.31	-7.64297e-05
7	283911	12.41	-9.44895e-05
7	287005	12.51	-0.00010761
7	290099	12.61	-0.000116443
7	293193	12.71	-0.000121601
7	296287	12.81	-0.000123652
7	299381	12.91	-0.000123116
7	302489	13.01	-0.000120468
7	305583	13.11	-0.000116135
7	308677	13.21	-0.000110498
7	311771	13.31	-0.000103891
7	314865	13.41	-9.66082e-05
7	317959	13.51	-8.89008e-05
7	321053	13.61	-8.09836e-05
7	324147	13.71	-7.30362e-05
7	327241	13.81	-6.52066e-05
7	330335	13.91	-5.76141e-05
7	333443	14.01	-5.03522e-05
7	336537	14.11	-4.34918e-05
7	339631	14.21	-3.70839e-05
7	342725	14.31	-3.1162e-05
7	345819	14.41	-2.5745e-05
7	348913	14.51	-2.08395e-05
7	352007	14.61	-1.64415e-05
7	355101	14.71	-1.25387e-05
7	358195	14.81	-9.11214e-06
7	361289	14.91	-6.13775e-06
7	364397	15.01	-3.58762e-06
7	367491	15.11	-1.43128e-06
7	370585	15.21	3.63339e-07
7	373679	15.31	1.82904e-06
7	376773	15.41	2.99861e-06
7	379867	15.51	3.90429e-06
7	382961	15.61	4.57723e-06
7	386055	15.71	5.04718e-06
7	389149	15.81	5.34218e-06
7	392243	15.91	5.48837e-06
7	395351	16.01	5.50985e-06
7	398445	16.11	5.42865e-06
7	401539	16.21	5.26467e-06
7	404633	16.31	5.03573e-06
7	407727	16.41	4.75759e-06
7	410821	16.51	4.44409e-06
7	413915	16.61	4.1072e-06
7	417009	16.71	3.75717e-06
7	420103	16.81	3.40264e-06
7	423197	16.91	3.05076e-06
7	426305	17.01	2.70739e-06
7	429399	17.11	2.37714e-06
7	432493	17.21	2.06359e-06
7	435587	17.31	1.76935e-06
7	438681	17.41	1.49624e-06
7	441775	17.51	1.24536e-06
7	444869	17.61	1.01721e-06
7	447963	17.71	8.11809e-07
7	451057	17.81	6.28745e-07
7	454151	17.91	4.67292e-07
7	457259	18.01	3.26462e-07
7	460353	18.11	2.05078e-07
7	463447	18.21	1.01822e-07
7	466541	18.31	1.52902e-08
7	469635	18.41	-5.59705e-08
7	472729	18.51	-1.13425e-07
7	475823	18.61	-1.58524e-07
7	478917	18.71	-1.92677e-07
7	482011	18.81	-2.17238e-07
7	485105	18.91	-2.33491e-07
7	488213	19.01	-2.42637e-07
7	491307	19.11	-2.45787e-07
7	494401	19.21	-2.43962e-07
7	497495	19.31	-2.38091e-07
7	500589	19.41	-2.29003e-07
7	503683	19.51	-2.17441e-07
7	506777	19.61	-2.04056e-07
7	509871	19.71	-1.89416e-07
7	512965	19.81	-1.74009e-07
7	516059	19.91	-1.58249e-07
7	519167	20.01	-1.42481e-07
7	522261	20.11	-1.26991e-07
7	525355	20.21	-1.12005e-07
7	528449	20.31	-9.77028e-08
7	531543	20.41	-8.42178e-08
7	534637	20.51	-7.16451e-08
7	537731	20.61	-6.00462e-08
7	540825	20.71	-4.94538e-08
7	543919	20.81	-3.98771e-08
7	547013	20.91	-3.13058e-08
7	550121	21.01	-2.37129e-08
7	553215	21.11	-1.70591e-08
7	556309	21.21	-1.12941e-08
7	559403	21.31	-6.36255e-09
7	562497	21.41	-2.20233e-09
7	565591	21.51	1.24949e-09
7	568685	21.61	4.05898e-09
7	571779	21.71	6.29079e-09
7	574873	21.81	8.00853e-09
7	577967	21.91	9.27471e-09
7	581075	22.01	1.01473e-08
7	584169	22.11	1.06805e-08
7	587263	22.21	1.09267e-08
7	590357	22.31	1.09321e-08
7	593451	22.41	1.07402e-08
7	596545	22.51	1.03903e-08
7	599639	22.61	9.91704e-09
7	602733	22.71	9.3511e-09
7	605827	22.81	8.71943e-09
7	608921	22.91	8.04405e-09
7	612029	23.01	7.34666e-09
7	615123	23.11	6.64322e-09
7	618217	23.21	5.94618e-09
7	621311	23.31	5.26761e-09
7	624405	23.41	4.61675e-09
7	627499	23.51	4.00036e-09
7	630593	23.61	3.42233e-09
7	633687	23.71	2.88694e-09
7	636781	23.81	2.39595e-09
7	639875	23.91	1.95008e-09
7	642983	24.01	1.54969e-09
7	646077	24.11	1.193e-09
7	649171	24.21	8.79297e-10
7	652265	24.31	6.06093e-10
7	655359	24.41	3.70548e-10
7	658453	24.51	1.70175e-10
7	661547	24.61	3.55271e-12
7	664641	24.71	-1.32871e-10
7	667735	24.81	-2.42295e-10
7	670829	24.91	-3.27915e-10
7	673937	25.01	-3.92575e-10
7	677031	25.11	-4.3876e-10
7	680125	25.21	-4.68248e-10
7	683219	25.31	-4.84235e-10
7	686313	25.41	-4.88498e-10
7	689407	25.51	-4.83169e-10
7	692501	25.61	-4.70379e-10
7	695595	25.71	-4.51195e-10
7	698689	25.81	-4.27391e-10
7	701783	25.91	-4.00036e-10
7	704891	26.01	-3.71259e-10
7	707985	26.11	-3.39284e-10
7	711079	26.21	-3.0731e-10
7	714173	26.31	-2.75335e-10
7	717267	26.41	-2.45848e-10
7	720361	26.51	-2.17426e-10
7	723455	26.61	-1.89004e-10
7	726549	26.71	-1.6307e-10
7	729643	26.81	-1.38201e-10
7	732737	26.91	-1.16174e-10
7	735845	27.01	-9.48575e-11
7	738939	27.11	-7.70939e-11
7	742033	27.21	-6.00409e-11
7	745127	27.31	-4.583e-11
7	748221	27.41	-3.23297e-11
7	751315	27.51	-2.16716e-11
7	754409	27.61	-1.13687e-11
7	757503	27.71	-4.26326e-12
7	760597	27.81	2.84217e-12
7	763691	27.91	8.52651e-12
7	766799	28.01	1.20792e-11
7	769893	28.11	1.56319e-11
7	772987	28.21	1.91847e-11
7	776081	28.31	1.98952e-11
7	779175	28.41	1.98952e-11
7	782269	28.51	1.98952e-11
7	785363	28.61	1.98952e-11
7	788457	28.71	1.98952e-11
7	791551	28.81	1.98952e-11
7	794645	28.91	1.98952e-11
7	797753	29.01	1.98952e-11
7	800847	29.11	1.98952e-11
7	803941	29.21	1.81188e-11
7	807035	29.31	1.63425e-11
7	810129	29.41	1.49214e-11
7	813223	29.51	1.35003e-11
7	816317	29.61	1.20792e-11
7	819411	29.71	1.10134e-11
7	822505	29.81	9.9476e-12
7	825599	29.91	8.88178e-12
7	828707	30.01	8.17124e-12
7	831801	30.11	7.4607e-12
7	834895	30.21	6.75016e-12
7	837989	30.31	6.03961e-12
7	841083	30.41	5.32907e-12
7	844177	30.51	4.9738e-12
7	847271	30.61	4.61853e-12
7	850365	30.71	3.90799e-12
7	853459	30.81	3.55271e-12
7	856553	30.91	3.19744e-12
7	859661	31.01	2.84217e-12
7	862755	31.11	2.84217e-12
7	865849	31.21	2.4869e-12
7	868943	31.31	2.13163e-12
7	872037	31.41	2.13163e-12
7	875131	31.51	1.77636e-12
7	878225	31.61	1.77636e-12
7	881319	31.71	1.42109e-12
7	884413	31.81	1.42109e-12
7	887507	31.91	1.06581e-12
7	890615	32.01	1.06581e-12
7	893709	32.11	1.06581e-12
7	896803	32.21	7.10543e-13
7	899897	32.31	7.10543e-13
7	902991	32.41	7.10543e-13
7	906085	32.51	7.10543e-13
7	909179	32.61	7.10543e-13
7	912273	32.71	7.10543e-13
7	915367	32.81	3.55271e-13
7	918461	32.91	3.55271e-13
7	921569	33.01	3.55271e-13
7	924663	33.11	3.55271e-13
7	927757	33.21	3.55271e-13
7	930851	33.31	3.55271e-13
7	933945	33.41	3.55271e-13
7	937039	33.51	3.55271e-13
7	940133	33.61	3.55271e-13
7	943227	33.71	0
7	946321	33.81	0
7	949415	33.91	0
7	952523	34.01	0
7	955617	34.11	0
7	958711	34.21	0
7	961805	34.31	0
7	964899	34.41	0
7	967993	34.51	0
7	971087	34.61	0
7	974181	34.71	0
7	977275	34.81	0
7	980369	34.91	0
7	983477	35.01	0
7	986571	35.11	0
7	989665	35.21	0
7	992759	35.31	0
7	995853	35.41	0
7	998947	35.51	0
7	1002041	35.61	0
7	1005135	35.71	0
7	1008229	35.81	0
7	1011323	35.91	0
7	1014431	36.01	0
7	1017525	36.11	0
7	1020619	36.21	0
7	1023713	36.31	0
7	1026807	36.41	0
7	1029901	36.51	0
7	1032995	36.61	0
7	1036089	36.71	0
7	1039183	36.81	0
7	1042277	36.91	0
7	1045385	37.01	0
7	1048479	37.11	0
7	1051573	37.21	0
7	1054667	37.31	0
7	1057761	37.41	0
7	1060855	37.51	0
7	1063949	37.61	0
7	1067043	37.71	0
7	1070137	37.81	0
7	1073231	37.91	0
7	1076339	38.01	0
7	1079433	38.11	0
7	1082527	38.21	0
7	1085621	38.31	0
7	1088715	38.41	0
7	1091809	38.51	0
7	1094903	38.61	0
7	1097997	38.71	0
7	1101091	38.81	0
7	1104185	38.91	0
7	1107293	39.01	0
7	1110387	39.11	0
7	1113481	39.21	0
7	1116575	39.31	0
7	1119669	39.41	0
7	1122763	39.51	0
7	1125857	39.61	0
7	1128951	39.71	0
7	1132045	39.81	0
7	1135139	39.91	0
7	1138247	40.01	0
7	1141341	40.11	0
7	1144435	40.21	0
7	1147529	40.31	0
7	1150623	40.41	0
7	1153717	40.51	0
7	1156811	40.61	0
7	1159905	40.71	0
7	1162999	40.81	0
7	1166093	40.91	0
7	1169201	41.01	0
7	1172295	41.11	0
7	1175389	41.21	0
7	1178483	41.31	0
7	1181577	41.41	0
7	1184671	41.51	0
7	1187765	41.61	0
7	1190859	41.71	0
7	1193953	41.81	0
7	1197047	41.91	0
7	1200155	42.01	0
7	1203249	42.11	0
7	1206343	42.21	0
7	1209437	42.31	0
7	1212531	42.41	0
7	1215625	42.51	0
7	1218719	42.61	0
7	1221813	42.71	0
7	1224907	42.81	0
7	1228001	42.91	0
7	1231109	43.01	0
7	1234203	43.11	0
7	1237297	43.21	0
7	1240391	43.31	0
7	1243485	43.41	0
7	1246579	43.51	0
7	1249673	43.61	0
7	1252767	43.71	0
7	1255861	43.81	0
7	1258955	43.91	0
7	1262063	44.01	0
7	1265157	44.11	0
7	1268251	44.21	0
7	1271345	44.31	0
7	1274439	44.41	0
7	1277533	44.51	0
7	1280627	44.61	0
7	1283721	44.71	0
7	1286815	44.81	0
7	1289909	44.91	0
7	1293017	45.01	0
7	1296111	45.11	0
7	1299205	45.21	0
7	1302299	45.31	0
7	1305393	45.41	0
7	1308487	45.51	0
7	1311581	45.61	0
7	1314675	45.71	0
7	1317769	45.81	0
7	1320863	45.91	0
7	1323971	46.01	0
7	1327065	46.11	0
7	1330159	46.21	0
7	1333253	46.31	0
7	1336347	46.41	0
7	1339441	46.51	0
7	1342535	46.61	0
7	1345629	46.71	0
7	1348723	46.81	0
7	1351817	46.91	0
7	1354925	47.01	0
7	1358019	47.11	0
7	1361113	47.21	0
7	1364207	47.31	0
7	1367301	47.41	0
7	1370395	47.51	0
7	1373489	47.61	0
7	1376583	47.71	0
7	1379677	47.81	0
7	1382771	47.91	0
7	1385879	48.01	0
7	1388973	48.11	0
7	1392067	48.21	0
7	1395161	48.31	0
7	1398255	48.41	0
7	1401349	48.51	0
7	1404443	48.61	0
7	1407537	48.71	0
7	1410631	48.81	0
7	1413725	48.91	0
7	1416833	49.01	0
7	1419927	49.11	0
7	1423021	49.21	0
7	1426115	49.31	0
7	1429209	49.41	0
7	1432303	49.51	0
7	1435397	49.61	0
7	1438491	49.71	0
7	1441585	49.81	0
7	1444679	49.91	0
7	1447787	50.01	0
7	1450881	50.11	0
7	1453975	50.21	0
7	1457069	50.31	0
7	1460163	50.41	0
7	1463257	50.51	0
7	1466351	50.61	0
7	1469445	50.71	0
7	1472539	50.81	0
7	1475633	50.91	0
7	1478741	51.01	0
7	1481835	51.11	0
7	1484929	51.21	0
7	1488023	51.31	0
7	1491117	51.41	0
7	1494211	51.51	0
7	1497305	51.61	0
7	1500399	51.71	0
7	1503493	51.81	0
7	1506587	51.91	0
7	1509695	52.01	0
7	1512789	52.11	0
7	1515883	52.21	0
7	1518977	52.31	0
7	1522071	52.41	0
7	1525165	52.51	0
7	1528259	52.61	0
7	1531353	52.71	0
7	1534447	52.81	0
7	1537541	52.91	0
7	1540649	53.01	0
7	1543743	53.11	0
7	1546837	53.21	0
7	1549931	53.31	0
7	1553025	53.41	0
7	1556119	53.51	0
7	1559213	53.61	0
7	1562307	53.71	0
7	1565401	53.81	0
7	1568495	53.91	0
7	1571603	54.01	0
7	1574697	54.11	0
7	1577791	54.21	0
7	1580885	54.31	0
7	1583979	54.41	0
7	1587073	54.51	0
7	1590167	54.61	0
7	1593261	54.71	0
7	1596355	54.81	0
7	1599449	54.91	0
7	1602557	55.01	0
7	1605651	55.11	0
7	1608745	55.21	0
7	1611839	55.31	0
7	1614933	55.41	0
7	1618027	55.51	0
7	1621121	55.61	0
7	1624215	55.71	0
7	1627309	55.81	0
7	1630403	55.91	0
7	1633511	56.01	0
7	1636605	56.11	0
7	1639699	56.21	0
7	1642793	56.31	0
7	1645887	56.41	0
7	1648981	56.51	0
7	1652075	56.61	0
7	1655169	56.71	0
7	1658263	56.81	0
7	1661357	56.91	0
7	1664465	57.01	0
7	1667559	57.11	0
7	1670653	57.21	0
7	1673747	57.31	0
7	1676841	57.41	0
7	1679935	57.51	0
7	1683029	57.61	0
7	1686123	57.71	0
7	1689217	57.81	0
7	1692311	57.91	0
7	1695419	58.01	0
7	1698513	58.11	0
7	1701607	58.21	0
7	1704701	58.31	0
7	1707795	58.41	0
7	1710889	58.51	0
7	1713983	58.61	0
7	1717077	58.71	0
7	1720171	58.81	0
7	1723265	58.91	0
7	1726373	59.01	0
7	1729467	59.11	0
7	1732561	59.21	0
7	1735655	59.31	0
7	1738749	59.41	0
7	1741843	59.51	0
7	1744937	59.61	0
7	1748031	59.71	0
7	1751125	59.81	0
7	1754219	59.91	0
7	1757327	60.01	0
7	1760421	60.11	0
7	1763515	60.21	0
7	1766609	60.31	0
7	1769703	60.41	0
7	1772797	60.51	0
7	1775891	60.61	0
7	1778985	60.71	0
7	1782079	60.81	0
7	1785173	60.91	0
7	1788281	61.01	0
7	1791375	61.11	0
7	1794469	61.21	0
7	1797563	61.31	0
7	1800657	61.41	0
7	1803751	61.51	0
7	1806845	61.61	0
7	1809939	61.71	0
7	1813033	61.81	0
7	1816127	61.91	0
7	1819235	62.01	0
7	1822329	62.11	0
7	1825423	62.21	0
7	1828517	62.31	0
7	1831611	62.41	0
7	1834705	62.51	0
7	1837799	62.61	0
7	1840893	62.71	0
7	1843987	62.81	0
7	1847081	62.91	0
7	1850189	63.01	0
7	1853283	63.11	0
7	1856377	63.21	0
7	1859471	63.31	0
7	1862565	63.41	0
7	1865659	63.51	0
7	1868753	63.61	0
7	1871847	63.71	0
7	1874941	63.81	0
7	1878035	63.91	0
7	1881143	64.01	0
7	1884237	64.11	0
7	1887331	64.21	0
7	1890425	64.31	0
7	1893519	64.41	0
7	1896613	64.51	0
7	1899707	64.61	0
7	1902801	64.71	0
7	1905895	64.81	0
7	1908989	64.91	0
7	1912097	65.01	0
7	1915191	65.11	0
7	1918285	65.21	0
7	1921379	65.31	0
7	1924473	65.41	0
7	1927567	65.51	0
7	1930661	65.61	0
7	1933755	65.71	0
7	1936849	65.81	0
7	1939943	65.91	0
7	1943051	66.01	0
7	1946145	66.11	0
7	1949239	66.21	0
7	1952333	66.31	0
7	1955427	66.41	0
7	1958521	66.51	0
7	1961615	66.61	0
7	1964709	66.71	0
7	1967803	66.81	0
7	1970897	66.91	0
7	1974005	67.01	0
7	1977099	67.11	0
7	1980193	67.21	0
7	1983287	67.31	0
7	1986381	67.41	0
7	1989475	67.51	0
7	1992569	67.61	0
7	1995663	67.71	0
7	1998757	67.81	0
7	2001851	67.91	0
7	2004959	68.01	0
7	2008053	68.11	0
7	2011147	68.21	0
7	2014241	68.31	0
7	2017335	68.41	0
7	2020429	68.51	0
7	2023523	68.61	0
7	2026617	68.71	0
7	2029711	68.81	0
7	2032805	68.91	0
7	2035913	69.01	0
7	2039007	69.11	0
7	2042101	69.21	0
7	2045195	69.31	0
7	2048289	69.41	0
7	2051383	69.51	0
7	2054477	69.61	0
7	2057571	69.71	0
7	2060665	69.81	0
7	2063759	69.91	0
7	2066867	70.01	0
7	2069961	70.11	0
7	2073055	70.21	0
7	2076149	70.31	0
7	2079243	70.41	0
7	2082337	70.51	0
7	2085431	70.61	0
7	2088525	70.71	0
7	2091619	70.81	0
7	2094713	70.91	0
7	2097821	71.01	0
7	2100915	71.11	0
7	2104009	71.21	0
7	2107103	71.31	0
7	2110197	71.41	0
7	2113291	71.51	0
7	2116385	71.61	0
7	2119479	71.71	0
7	2122573	71.81	0
7	2125667	71.91	0
7	2128775	72.01	0
7	2131869	72.11	0
7	2134963	72.21	0
7	2138057	72.31	0
7	2141151	72.41	0
7	2144245	72.51	0
7	2147339	72.61	0
7	2150433	72.71	0
7	2153527	72.81	0
7	2156621	72.91	0
7	2159729	73.01	0
7	2162823	73.11	0
7	2165917	73.21	0
7	2169011	73.31	0
7	2172105	73.41	0
7	2175199	73.51	0
7	2178293	73.61	0
7	2181387	73.71	0
7	2184481	73.81	0
7	2187575	73.91	0
7	2190683	74.01	0
7	2193777	74.11	0
7	2196871	74.21	0
7	2199965	74.31	0
7	2203059	74.41	0
7	2206153	74.51	0
7	2209247	74.61	0
7	2212341	74.71	0
7	2215435	74.81	0
7	2218529	74.91	0
7	2221637	75.01	0
7	2224731	75.11	0
7	2227825	75.21	0
7	2230919	75.31	0
7	2234013	75.41	0
7	2237107	75.51	0
7	2240201	75.61	0
7	2243295	75.71	0
7	2246389	75.81	0
7	2249483	75.91	0
7	2252591	76.01	0
7	2255685	76.11	0
7	2258779	76.21	0
7	2261873	76.31	0
7	2264967	76.41	0
7	2268061	76.51	0
7	2271155	76.61	0
7	2274249	76.71	0
7	2277343	76.81	0
7	2280437	76.91	0
7	2283545	77.01	0
7	2286639	77.11	0
7	2289733	77.21	0
7	2292827	77.31	0
7	2295921	77.41	0
7	2299015	77.51	0
7	2302109	77.61	0
7	2305203	77.71	0
7	2308297	77.81	0
7	2311391	77.91	0
7	2314499	78.01	0
7	2317593	78.11	0
7	2320687	78.21	0
7	2323781	78.31	0
7	2326875	78.41	0
7	2329969	78.51	0
7	2333063	78.61	0
7	2336157	78.71	0
7	2339251	78.81	0
7	2342345	78.91	0
7	2345453	79.01	0
7	2348547	79.11	0
7	2351641	79.21	0
7	2354735	79.31	0
7	2357829	79.41	0
7	2360923	79.51	0
7	2364017	79.61	0
7	2367111	79.71	0
7	2370205	79.81	0
7	2373299	79.91	0
7	2376407	80.01	0
7	2379501	80.11	0
7	2382595	80.21	0
7	2385689	80.31	0
7	2388783	80.41	0
7	2391877	80.51	0
7	2394971	80.61	0
7	2398065	80.71	0
7	2401159	80.81	0
7	2404253	80.91	0
7	2407361	81.01	0
7	2410455	81.11	0
7	2413549	81.21	0
7	2416643	81.31	0
7	2419737	81.41	0
7	2422831	81.51	0
7	2425925	81.61	0
7	2429019	81.71	0
7	2432113	81.81	0
7	2435207	81.91	0
7	2438315	82.01	0
7	2441409	82.11	0
7	2444503	82.21	0
7	2447597	82.31	0
7	2450691	82.41	0
7	2453785	82.51	0
7	2456879	82.61	0
7	2459973	82.71	0
7	2463067	82.81	0
7	2466161	82.91	0
7	2469269	83.01	0
7	2472363	83.11	0
7	2475457	83.21	0
7	2478551	83.31	0
7	2481645	83.41	0
7	2484739	83.51	0
7	2487833	83.61	0
7	2490927	83.71	0
7	2494021	83.81	0
7	2497115	83.91	0
7	2500223	84.01	0
7	2503317	84.11	0
7	2506411	84.21	0
7	2509505	84.31	0
7	2512599	84.41	0
7	2515693	84.51	0
7	2518787	84.61	0
7	2521881	84.71	0
7	2524975	84.81	0
7	2528069	84.91	0
7	2531177	85.01	0
7	2534271	85.11	0
7	2537365	85.21	0
7	2540459	85.31	0
7	2543553	85.41	0
7	2546647	85.51	0
7	2549741	85.61	0
7	2552835	85.71	0
7	2555929	85.81	0
7	2559023	85.91	0
7	2562131	86.01	0
7	2565225	86.11	0
7	2568319	86.21	0
7	2571413	86.31	0
7	2574507	86.41	0
7	2577601	86.51	0
7	2580695	86.61	0
7	2583789	86.71	0
7	2586883	86.81	0
7	2589977	86.91	0
7	2593085	87.01	0
7	2596179	87.11	0
7	2599273	87.21	0
7	2602367	87.31	0
7	2605461	87.41	0
7	2608555	87.51	0
7	2611649	87.61	0
7	2614743	87.71	0
7	2617837	87.81	0
7	2620931	87.91	0
7	2624039	88.01	0
7	2627133	88.11	0
7	2630227	88.21	0
7	2633321	88.31	0
7	2636415	88.41	0
7	2639509	88.51	0
7	2642603	88.61	0
7	2645697	88.71	0
7	2648791	88.81	0
7	2651885	88.91	0
7	2654993	89.01	0
7	2658087	89.11	0
7	2661181	89.21	0
7	2664275	89.31	0
7	2667369	89.41	0
7	2670463	89.51	0
7	2673557	89.61	0
7	2676651	89.71	0
7	2679745	89.81	0
7	2682839	89.91	0
7	2685947	90.01	0
7	2689041	90.11	0
7	2692135	90.21	0
7	2695229	90.31	0
7	2698323	90.41	0
7	2701417	90.51	0
7	2704511	90.61	0
7	2707605	90.71	0
7	2710699	90.81	0
7	2713793	90.91	0
7	2716901	91.01	0
7	2719995	91.11	0
7	2723089	91.21	0
7	2726183	91.31	0
7	2729277	91.41	0
7	2732371	91.51	0
7	2735465	91.61	0
7	2738559	91.71	0
7	2741653	91.81	0
7	2744747	91.91	0
7	2747855	92.01	0
7	2750949	92.11	0
7	2754043	92.21	0
7	2757137	92.31	0
7	2760231	92.41	0
7	2763325	92.51	0
7	2766419	92.61	0
7	2769513	92.71	0
7	2772607	92.81	0
7	2775701	92.91	0
7	2778809	93.01	0
7	2781903	93.11	0
7	2784997	93.21	0
7	2788091	93.31	0
7	2791185	93.41	0
7	2794279	93.51	0
7	2797373	93.61	0
7	2800467	93.71	0
7	2803561	93.81	0
7	2806655	93.91	0
7	2809763	94.01	0
7	2812857	94.11	0
7	2815951	94.21	0
7	2819045	94.31	0
7	2822139	94.41	0
7	2825233	94.51	0
7	2828327	94.61	0
7	2831421	94.71	0
7	2834515	94.81	0
7	2837609	94.91	0
7	2840717	95.01	0
7	2843811	95.11	0
7	2846905	95.21	0
7	2849999	95.31	0
7	2853093	95.41	0
7	2856187	95.51	0
7	2859281	95.61	0
7	2862375	95.71	0
7	2865469	95.81	0
7	2868563	95.91	0
7	2871671	96.01	0
7	2874765	96.11	0
7	2877859	96.21	0
7	2880953	96.31	0
7	2884047	96.41	0
7	2887141	96.51	0
7	2890235	96.61	0
7	2893329	96.71	0
7	2896423	96.81	0
7	2899517	96.91	0
7	2902625	97.01	0
7	2905719	97.11	0
7	2908813	97.21	0
7	2911907	97.31	0
7	2915001	97.41	0
7	2918095	97.51	0
7	2921189	97.61	0
7	2924283	97.71	0
7	2927377	97.81	0
7	2930471	97.91	0
7	2933579	98.01	0
7	2936673	98.11	0
7	2939767	98.21	0
7	2942861	98.31	0
7	2945955	98.41	0
7	2949049	98.51	0
7	2952143	98.61	0
7	2955237	98.71	0
7	2958331	98.81	0
7	2961425	98.91	0
7	2964533	99.01	0
7	2967627	99.11	0
7	2970721	99.21	0
7	2973815	99.31	0
7	2976909	99.41	0
7	2980003	99.51	0
7	2983097	99.61	0
7	2986191	99.71	0
7	2989285	99.81	0
7	2992379	99.91	0
7	2995487	100.01	0
7	2998581	100.11	0
7	3001675	100.21	0
7	3004769	100.31	0
7	3007863	100.41	0
7	3010957	100.51	0
7	3014051	100.61	0
7	3017145	100.71	0
7	3020239	100.81	0
7	3023333	100.91	0
7	3026441	101.01	0
7	3029535	101.11	0
7	3032629	101.21	0
7	3035723	101.31	0
7	3038817	101.41	0
7	3041911	101.51	0
7	3045005	101.61	0
7	3048099	101.71	0
7	3051193	101.81	0
7	3054287	101.91	0
7	3057395	102.01	0
7	3060489	102.11	0
7	3063583	102.21	0
7	3066677	102.31	0
7	3069771	102.41	0
7	3072865	102.51	0
7	3075959	102.61	0
7	3079053	102.71	0
7	3082147	102.81	0
7	3085241	102.91	0
7	3088349	103.01	0
7	3091443	103.11	0
7	3094537	103.21	0
7	3097631	103.31	0
7	3100725	103.41	0
7	3103819	103.51	0
7	3106913	103.61	0
7	3110007	103.71	0
7	3113101	103.81	0
7	3116195	103.91	0
7	3119303	104.01	0
7	3122397	104.11	0
7	3125491	104.21	0
7	3128585	104.31	0
7	3131679	104.41	0
7	3134773	104.51	0
7	3137867	104.61	0
7	3140961	104.71	0
7	3144055	104.81	0
7	3147149	104.91	0
7	3150257	105.01	0
7	3153351	105.11	0
7	3156445	105.21	0
7	3159539	105.31	0
7	3162633	105.41	0
7	3165727	105.51	0
7	3168821	105.61	0
7	3171915	105.71	0
7	3175009	105.81	0
7	3178103	105.91	0
7	3181211	106.01	0
7	3184305	106.11	0
7	3187399	106.21	0
7	3190493	106.31	0
7	3193587	106.41	0
7	3196681	106.51	0
7	3199775	106.61	0
7	3202869	106.71	0
7	3205963	106.81	0
7	3209057	106.91	0
7	3212165	107.01	0
7	3215259	107.11	0
7	3218353	107.21	0
7	3221447	107.31	0
7	3224541	107.41	0
6	935	2.11	239.6
6	1670	2.21	239.6
6	2405	2.31	239.6
6	3140	2.41	239.6
6	3876	2.51	239.6
6	4611	2.61	239.6
6	5346	2.71	239.6
6	6082	2.81	239.6
6	6817	2.91	239.6
6	7560	3.01	239.6
6	9005	3.11	239.6
6	10855	3.21	239.6
6	12705	3.31	239.6
6	14557	3.41	239.6
6	16408	3.51	239.6
6	18259	3.61	239.6
6	20109	3.71	239.6
6	21959	3.81	239.6
6	23809	3.91	239.6
6	25671	4.01	239.6
6	28249	4.11	239.6
6	31279	4.21	239.6
6	34309	4.31	239.6
6	37340	4.41	239.6
6	40370	4.51	239.6
6	43401	4.61	239.6
6	46431	4.71	239.6
6	49462	4.81	239.6
6	52492	4.91	239.6
6	55537	5.01	239.6
6	58567	5.11	239.6
6	61597	5.21	239.6
6	64627	5.31	239.6
6	67657	5.41	239.6
6	70687	5.51	239.6
6	73717	5.61	239.6
6	76747	5.71	239.6
6	79777	5.81	239.6
6	82807	5.91	239.6
6	85854	6.01	239.6
6	88941	6.11	239.6
6	92031	6.21	239.6
6	95121	6.31	239.6
6	98211	6.41	239.6
6	101301	6.51	239.6
6	104391	6.61	239.6
6	107481	6.71	239.6
6	110571	6.81	239.6
6	113661	6.91	239.6
6	116766	7.01	239.6
6	119859	7.11	239.6
6	122953	7.21	239.6
6	126047	7.31	239.6
6	129141	7.41	239.6
6	132235	7.51	239.6
6	135329	7.61	239.6
6	138423	7.71	239.6
6	141517	7.81	239.6
6	144611	7.91	239.6
6	147719	8.01	239.6
6	150813	8.11	239.6
6	153907	8.21	239.6
6	157001	8.31	239.6
6	160095	8.41	239.6
6	163189	8.51	239.6
6	166283	8.61	239.6
6	169377	8.71	239.6
6	172471	8.81	239.6
6	175565	8.91	239.6
6	178673	9.01	239.6
6	181767	9.11	239.6
6	184861	9.21	239.6
6	187955	9.31	239.6
6	191049	9.41	239.6
6	194143	9.51	239.6
6	197237	9.61	239.6
6	200331	9.71	239.6
6	203425	9.81	239.6
6	206519	9.91	239.6
6	209627	10.01	239.6
6	212721	10.11	239.6
6	215815	10.21	239.6
6	218909	10.31	239.6
6	222003	10.41	239.6
6	225097	10.51	239.6
6	228191	10.61	239.6
6	231285	10.71	239.6
6	234379	10.81	239.6
6	237473	10.91	239.6
6	240581	11.01	239.6
6	243675	11.11	239.6
6	246769	11.21	239.6
6	249863	11.31	239.6
6	252957	11.41	239.6
6	256051	11.51	239.6
6	259145	11.61	239.6
6	262239	11.71	239.6
6	265333	11.81	239.6
6	268427	11.91	239.6
6	271535	12.01	239.6
6	274629	12.11	239.6
6	277723	12.21	239.6
6	280817	12.31	239.6
6	283911	12.41	239.6
6	287005	12.51	239.6
6	290099	12.61	239.6
6	293193	12.71	239.6
6	296287	12.81	239.6
6	299381	12.91	239.6
6	302489	13.01	239.6
6	305583	13.11	239.6
6	308677	13.21	239.6
6	311771	13.31	239.6
6	314865	13.41	239.6
6	317959	13.51	239.6
6	321053	13.61	239.6
6	324147	13.71	239.6
6	327241	13.81	239.6
6	330335	13.91	239.6
6	333443	14.01	239.6
6	336537	14.11	239.6
6	339631	14.21	239.6
6	342725	14.31	239.6
6	345819	14.41	239.6
6	348913	14.51	239.6
6	352007	14.61	239.6
6	355101	14.71	239.6
6	358195	14.81	239.6
6	361289	14.91	239.6
6	364397	15.01	239.6
6	367491	15.11	239.6
6	370585	15.21	239.6
6	373679	15.31	239.6
6	376773	15.41	239.6
6	379867	15.51	239.6
6	382961	15.61	239.6
6	386055	15.71	239.6
6	389149	15.81	239.6
6	392243	15.91	239.6
6	395351	16.01	239.6
6	398445	16.11	239.6
6	401539	16.21	239.6
6	404633	16.31	239.6
6	407727	16.41	239.6
6	410821	16.51	239.6
6	413915	16.61	239.6
6	417009	16.71	239.6
6	420103	16.81	239.6
6	423197	16.91	239.6
6	426305	17.01	239.6
6	429399	17.11	239.6
6	432493	17.21	239.6
6	435587	17.31	239.6
6	438681	17.41	239.6
6	441775	17.51	239.6
6	444869	17.61	239.6
6	447963	17.71	239.6
6	451057	17.81	239.6
6	454151	17.91	239.6
6	457259	18.01	239.6
6	460353	18.11	239.6
6	463447	18.21	239.6
6	466541	18.31	239.6
6	469635	18.41	239.6
6	472729	18.51	239.6
6	475823	18.61	239.6
6	478917	18.71	239.6
6	482011	18.81	239.6
6	485105	18.91	239.6
6	488213	19.01	239.6
6	491307	19.11	239.6
6	494401	19.21	239.6
6	497495	19.31	239.6
6	500589	19.41	239.6
6	503683	19.51	239.6
6	506777	19.61	239.6
6	509871	19.71	239.6
6	512965	19.81	239.6
6	516059	19.91	239.6
6	519167	20.01	239.6
6	522261	20.11	239.6
6	525355	20.21	239.6
6	528449	20.31	239.6
6	531543	20.41	239.6
6	534637	20.51	239.6
6	537731	20.61	239.6
6	540825	20.71	239.6
6	543919	20.81	239.6
6	547013	20.91	239.6
6	550121	21.01	239.6
6	553215	21.11	239.6
6	556309	21.21	239.6
6	559403	21.31	239.6
6	562497	21.41	239.6
6	565591	21.51	239.6
6	568685	21.61	239.6
6	571779	21.71	239.6
6	574873	21.81	239.6
6	577967	21.91	239.6
6	581075	22.01	239.6
6	584169	22.11	239.6
6	587263	22.21	239.6
6	590357	22.31	239.6
6	593451	22.41	239.6
6	596545	22.51	239.6
6	599639	22.61	239.6
6	602733	22.71	239.6
6	605827	22.81	239.6
6	608921	22.91	239.6
6	612029	23.01	239.6
6	615123	23.11	239.6
6	618217	23.21	239.6
6	621311	23.31	239.6
6	624405	23.41	239.6
6	627499	23.51	239.6
6	630593	23.61	239.6
6	633687	23.71	239.6
6	636781	23.81	239.6
6	639875	23.91	239.6
6	642983	24.01	239.6
6	646077	24.11	239.6
6	649171	24.21	239.6
6	652265	24.31	239.6
6	655359	24.41	239.6
6	658453	24.51	239.6
6	661547	24.61	239.6
6	664641	24.71	239.6
6	667735	24.81	239.6
6	670829	24.91	239.6
6	673937	25.01	239.6
6	677031	25.11	239.6
6	680125	25.21	239.6
6	683219	25.31	239.6
6	686313	25.41	239.6
6	689407	25.51	239.6
6	692501	25.61	239.6
6	695595	25.71	239.6
6	698689	25.81	239.6
6	701783	25.91	239.6
6	704891	26.01	239.6
6	707985	26.11	239.6
6	711079	26.21	239.6
6	714173	26.31	239.6
6	717267	26.41	239.6
6	720361	26.51	239.6
6	723455	26.61	239.6
6	726549	26.71	239.6
6	729643	26.81	239.6
6	732737	26.91	239.6
6	735845	27.01	239.6
6	738939	27.11	239.6
6	742033	27.21	239.6
6	745127	27.31	239.6
6	748221	27.41	239.6
6	751315	27.51	239.6
6	754409	27.61	239.6
6	757503	27.71	239.6
6	760597	27.81	239.6
6	763691	27.91	239.6
6	766799	28.01	239.6
6	769893	28.11	239.6
6	772987	28.21	239.6
6	776081	28.31	239.6
6	779175	28.41	239.6
6	782269	28.51	239.6
6	785363	28.61	239.6
6	788457	28.71	239.6
6	791551	28.81	239.6
6	794645	28.91	239.6
6	797753	29.01	239.6
6	800847	29.11	239.6
6	803941	29.21	239.6
6	807035	29.31	239.6
6	810129	29.41	239.6
6	813223	29.51	239.6
6	816317	29.61	239.6
6	819411	29.71	239.6
6	822505	29.81	239.6
6	825599	29.91	239.6
6	828707	30.01	239.6
6	831801	30.11	239.6
6	834895	30.21	239.6
6	837989	30.31	239.6
6	841083	30.41	239.6
6	844177	30.51	239.6
6	847271	30.61	239.6
6	850365	30.71	239.6
6	853459	30.81	239.6
6	856553	30.91	239.6
6	859661	31.01	239.6
6	862755	31.11	239.6
6	865849	31.21	239.6
6	868943	31.31	239.6
6	872037	31.41	239.6
6	875131	31.51	239.6
6	878225	31.61	239.6
6	881319	31.71	239.6
6	884413	31.81	239.6
6	887507	31.91	239.6
6	890615	32.01	239.6
6	893709	32.11	239.6
6	896803	32.21	239.6
6	899897	32.31	239.6
6	902991	32.41	239.6
6	906085	32.51	239.6
6	909179	32.61	239.6
6	912273	32.71	239.6
6	915367	32.81	239.6
6	918461	32.91	239.6
6	921569	33.01	239.6
6	924663	33.11	239.6
6	927757	33.21	239.6
6	930851	33.31	239.6
6	933945	33.41	239.6
6	937039	33.51	239.6
6	940133	33.61	239.6
6	943227	33.71	239.6
6	946321	33.81	239.6
6	949415	33.91	239.6
6	952523	34.01	239.6
6	955617	34.11	239.6
6	958711	34.21	239.6
6	961805	34.31	239.6
6	964899	34.41	239.6
6	967993	34.51	239.6
6	971087	34.61	239.6
6	974181	34.71	239.6
6	977275	34.81	239.6
6	980369	34.91	239.6
6	983477	35.01	239.6
6	986571	35.11	239.6
6	989665	35.21	239.6
6	992759	35.31	239.6
6	995853	35.41	239.6
6	998947	35.51	239.6
6	1002041	35.61	239.6
6	1005135	35.71	239.6
6	1008229	35.81	239.6
6	1011323	35.91	239.6
6	1014431	36.01	239.6
6	1017525	36.11	239.6
6	1020619	36.21	239.6
6	1023713	36.31	239.6
6	1026807	36.41	239.6
6	1029901	36.51	239.6
6	1032995	36.61	239.6
6	1036089	36.71	239.6
6	1039183	36.81	239.6
6	1042277	36.91	239.6
6	1045385	37.01	239.6
6	1048479	37.11	239.6
6	1051573	37.21	239.6
6	1054667	37.31	239.6
6	1057761	37.41	239.6
6	1060855	37.51	239.6
6	1063949	37.61	239.6
6	1067043	37.71	239.6
6	1070137	37.81	239.6
6	1073231	37.91	239.6
6	1076339	38.01	239.6
6	1079433	38.11	239.6
6	1082527	38.21	239.6
6	1085621	38.31	239.6
6	1088715	38.41	239.6
6	1091809	38.51	239.6
6	1094903	38.61	239.6
6	1097997	38.71	239.6
6	1101091	38.81	239.6
6	1104185	38.91	239.6
6	1107293	39.01	239.6
6	1110387	39.11	239.6
6	1113481	39.21	239.6
6	1116575	39.31	239.6
6	1119669	39.41	239.6
6	1122763	39.51	239.6
6	1125857	39.61	239.6
6	1128951	39.71	239.6
6	1132045	39.81	239.6
6	1135139	39.91	239.6
6	1138247	40.01	239.6
6	1141341	40.11	239.6
6	1144435	40.21	239.6
6	1147529	40.31	239.6
6	1150623	40.41	239.6
6	1153717	40.51	239.6
6	1156811	40.61	239.6
6	1159905	40.71	239.6
6	1162999	40.81	239.6
6	1166093	40.91	239.6
6	1169201	41.01	239.6
6	1172295	41.11	239.6
6	1175389	41.21	239.6
6	1178483	41.31	239.6
6	1181577	41.41	239.6
6	1184671	41.51	239.6
6	1187765	41.61	239.6
6	1190859	41.71	239.6
6	1193953	41.81	239.6
6	1197047	41.91	239.6
6	1200155	42.01	239.6
6	1203249	42.11	239.6
6	1206343	42.21	239.6
6	1209437	42.31	239.6
6	1212531	42.41	239.6
6	1215625	42.51	239.6
6	1218719	42.61	239.6
6	1221813	42.71	239.6
6	1224907	42.81	239.6
6	1228001	42.91	239.6
6	1231109	43.01	239.6
6	1234203	43.11	239.6
6	1237297	43.21	239.6
6	1240391	43.31	239.6
6	1243485	43.41	239.6
6	1246579	43.51	239.6
6	1249673	43.61	239.6
6	1252767	43.71	239.6
6	1255861	43.81	239.6
6	1258955	43.91	239.6
6	1262063	44.01	239.6
6	1265157	44.11	239.6
6	1268251	44.21	239.6
6	1271345	44.31	239.6
6	1274439	44.41	239.6
6	1277533	44.51	239.6
6	1280627	44.61	239.6
6	1283721	44.71	239.6
6	1286815	44.81	239.6
6	1289909	44.91	239.6
6	1293017	45.01	239.6
6	1296111	45.11	239.6
6	1299205	45.21	239.6
6	1302299	45.31	239.6
6	1305393	45.41	239.6
6	1308487	45.51	239.6
6	1311581	45.61	239.6
6	1314675	45.71	239.6
6	1317769	45.81	239.6
6	1320863	45.91	239.6
6	1323971	46.01	239.6
6	1327065	46.11	239.6
6	1330159	46.21	239.6
6	1333253	46.31	239.6
6	1336347	46.41	239.6
6	1339441	46.51	239.6
6	1342535	46.61	239.6
6	1345629	46.71	239.6
6	1348723	46.81	239.6
6	1351817	46.91	239.6
6	1354925	47.01	239.6
6	1358019	47.11	239.6
6	1361113	47.21	239.6
6	1364207	47.31	239.6
6	1367301	47.41	239.6
6	1370395	47.51	239.6
6	1373489	47.61	239.6
6	1376583	47.71	239.6
6	1379677	47.81	239.6
6	1382771	47.91	239.6
6	1385879	48.01	239.6
6	1388973	48.11	239.6
6	1392067	48.21	239.6
6	1395161	48.31	239.6
6	1398255	48.41	239.6
6	1401349	48.51	239.6
6	1404443	48.61	239.6
6	1407537	48.71	239.6
6	1410631	48.81	239.6
6	1413725	48.91	239.6
6	1416833	49.01	239.6
6	1419927	49.11	239.6
6	1423021	49.21	239.6
6	1426115	49.31	239.6
6	1429209	49.41	239.6
6	1432303	49.51	239.6
6	1435397	49.61	239.6
6	1438491	49.71	239.6
6	1441585	49.81	239.6
6	1444679	49.91	239.6
6	1447787	50.01	239.6
6	1450881	50.11	239.6
6	1453975	50.21	239.6
6	1457069	50.31	239.6
6	1460163	50.41	239.6
6	1463257	50.51	239.6
6	1466351	50.61	239.6
6	1469445	50.71	239.6
6	1472539	50.81	239.6
6	1475633	50.91	239.6
6	1478741	51.01	239.6
6	1481835	51.11	239.6
6	1484929	51.21	239.6
6	1488023	51.31	239.6
6	1491117	51.41	239.6
6	1494211	51.51	239.6
6	1497305	51.61	239.6
6	1500399	51.71	239.6
6	1503493	51.81	239.6
6	1506587	51.91	239.6
6	1509695	52.01	239.6
6	1512789	52.11	239.6
6	1515883	52.21	239.6
6	1518977	52.31	239.6
6	1522071	52.41	239.6
6	1525165	52.51	239.6
6	1528259	52.61	239.6
6	1531353	52.71	239.6
6	1534447	52.81	239.6
6	1537541	52.91	239.6
6	1540649	53.01	239.6
6	1543743	53.11	239.6
6	1546837	53.21	239.6
6	1549931	53.31	239.6
6	1553025	53.41	239.6
6	1556119	53.51	239.6
6	1559213	53.61	239.6
6	1562307	53.71	239.6
6	1565401	53.81	239.6
6	1568495	53.91	239.6
6	1571603	54.01	239.6
6	1574697	54.11	239.6
6	1577791	54.21	239.6
6	1580885	54.31	239.6
6	1583979	54.41	239.6
6	1587073	54.51	239.6
6	1590167	54.61	239.6
6	1593261	54.71	239.6
6	1596355	54.81	239.6
6	1599449	54.91	239.6
6	1602557	55.01	239.6
6	1605651	55.11	239.6
6	1608745	55.21	239.6
6	1611839	55.31	239.6
6	1614933	55.41	239.6
6	1618027	55.51	239.6
6	1621121	55.61	239.6
6	1624215	55.71	239.6
6	1627309	55.81	239.6
6	1630403	55.91	239.6
6	1633511	56.01	239.6
6	1636605	56.11	239.6
6	1639699	56.21	239.6
6	1642793	56.31	239.6
6	1645887	56.41	239.6
6	1648981	56.51	239.6
6	1652075	56.61	239.6
6	1655169	56.71	239.6
6	1658263	56.81	239.6
6	1661357	56.91	239.6
6	1664465	57.01	239.6
6	1667559	57.11	239.6
6	1670653	57.21	239.6
6	1673747	57.31	239.6
6	1676841	57.41	239.6
6	1679935	57.51	239.6
6	1683029	57.61	239.6
6	1686123	57.71	239.6
6	1689217	57.81	239.6
6	1692311	57.91	239.6
6	1695419	58.01	239.6
6	1698513	58.11	239.6
6	1701607	58.21	239.6
6	1704701	58.31	239.6
6	1707795	58.41	239.6
6	1710889	58.51	239.6
6	1713983	58.61	239.6
6	1717077	58.71	239.6
6	1720171	58.81	239.6
6	1723265	58.91	239.6
6	1726373	59.01	239.6
6	1729467	59.11	239.6
6	1732561	59.21	239.6
6	1735655	59.31	239.6
6	1738749	59.41	239.6
6	1741843	59.51	239.6
6	1744937	59.61	239.6
6	1748031	59.71	239.6
6	1751125	59.81	239.6
6	1754219	59.91	239.6
6	1757327	60.01	239.6
6	1760421	60.11	239.6
6	1763515	60.21	239.6
6	1766609	60.31	239.6
6	1769703	60.41	239.6
6	1772797	60.51	239.6
6	1775891	60.61	239.6
6	1778985	60.71	239.6
6	1782079	60.81	239.6
6	1785173	60.91	239.6
6	1788281	61.01	239.6
6	1791375	61.11	239.6
6	1794469	61.21	239.6
6	1797563	61.31	239.6
6	1800657	61.41	239.6
6	1803751	61.51	239.6
6	1806845	61.61	239.6
6	1809939	61.71	239.6
6	1813033	61.81	239.6
6	1816127	61.91	239.6
6	1819235	62.01	239.6
6	1822329	62.11	239.6
6	1825423	62.21	239.6
6	1828517	62.31	239.6
6	1831611	62.41	239.6
6	1834705	62.51	239.6
6	1837799	62.61	239.6
6	1840893	62.71	239.6
6	1843987	62.81	239.6
6	1847081	62.91	239.6
6	1850189	63.01	239.6
6	1853283	63.11	239.6
6	1856377	63.21	239.6
6	1859471	63.31	239.6
6	1862565	63.41	239.6
6	1865659	63.51	239.6
6	1868753	63.61	239.6
6	1871847	63.71	239.6
6	1874941	63.81	239.6
6	1878035	63.91	239.6
6	1881143	64.01	239.6
6	1884237	64.11	239.6
6	1887331	64.21	239.6
6	1890425	64.31	239.6
6	1893519	64.41	239.6
6	1896613	64.51	239.6
6	1899707	64.61	239.6
6	1902801	64.71	239.6
6	1905895	64.81	239.6
6	1908989	64.91	239.6
6	1912097	65.01	239.6
6	1915191	65.11	239.6
6	1918285	65.21	239.6
6	1921379	65.31	239.6
6	1924473	65.41	239.6
6	1927567	65.51	239.6
6	1930661	65.61	239.6
6	1933755	65.71	239.6
6	1936849	65.81	239.6
6	1939943	65.91	239.6
6	1943051	66.01	239.6
6	1946145	66.11	239.6
6	1949239	66.21	239.6
6	1952333	66.31	239.6
6	1955427	66.41	239.6
6	1958521	66.51	239.6
6	1961615	66.61	239.6
6	1964709	66.71	239.6
6	1967803	66.81	239.6
6	1970897	66.91	239.6
6	1974005	67.01	239.6
6	1977099	67.11	239.6
6	1980193	67.21	239.6
6	1983287	67.31	239.6
6	1986381	67.41	239.6
6	1989475	67.51	239.6
6	1992569	67.61	239.6
6	1995663	67.71	239.6
6	1998757	67.81	239.6
6	2001851	67.91	239.6
6	2004959	68.01	239.6
6	2008053	68.11	239.6
6	2011147	68.21	239.6
6	2014241	68.31	239.6
6	2017335	68.41	239.6
6	2020429	68.51	239.6
6	2023523	68.61	239.6
6	2026617	68.71	239.6
6	2029711	68.81	239.6
6	2032805	68.91	239.6
6	2035913	69.01	239.6
6	2039007	69.11	239.6
6	2042101	69.21	239.6
6	2045195	69.31	239.6
6	2048289	69.41	239.6
6	2051383	69.51	239.6
6	2054477	69.61	239.6
6	2057571	69.71	239.6
6	2060665	69.81	239.6
6	2063759	69.91	239.6
6	2066867	70.01	239.6
6	2069961	70.11	239.6
6	2073055	70.21	239.6
6	2076149	70.31	239.6
6	2079243	70.41	239.6
6	2082337	70.51	239.6
6	2085431	70.61	239.6
6	2088525	70.71	239.6
6	2091619	70.81	239.6
6	2094713	70.91	239.6
6	2097821	71.01	239.6
6	2100915	71.11	239.6
6	2104009	71.21	239.6
6	2107103	71.31	239.6
6	2110197	71.41	239.6
6	2113291	71.51	239.6
6	2116385	71.61	239.6
6	2119479	71.71	239.6
6	2122573	71.81	239.6
6	2125667	71.91	239.6
6	2128775	72.01	239.6
6	2131869	72.11	239.6
6	2134963	72.21	239.6
6	2138057	72.31	239.6
6	2141151	72.41	239.6
6	2144245	72.51	239.6
6	2147339	72.61	239.6
6	2150433	72.71	239.6
6	2153527	72.81	239.6
6	2156621	72.91	239.6
6	2159729	73.01	239.6
6	2162823	73.11	239.6
6	2165917	73.21	239.6
6	2169011	73.31	239.6
6	2172105	73.41	239.6
6	2175199	73.51	239.6
6	2178293	73.61	239.6
6	2181387	73.71	239.6
6	2184481	73.81	239.6
6	2187575	73.91	239.6
6	2190683	74.01	239.6
6	2193777	74.11	239.6
6	2196871	74.21	239.6
6	2199965	74.31	239.6
6	2203059	74.41	239.6
6	2206153	74.51	239.6
6	2209247	74.61	239.6
6	2212341	74.71	239.6
6	2215435	74.81	239.6
6	2218529	74.91	239.6
6	2221637	75.01	239.6
6	2224731	75.11	239.6
6	2227825	75.21	239.6
6	2230919	75.31	239.6
6	2234013	75.41	239.6
6	2237107	75.51	239.6
6	2240201	75.61	239.6
6	2243295	75.71	239.6
6	2246389	75.81	239.6
6	2249483	75.91	239.6
6	2252591	76.01	239.6
6	2255685	76.11	239.6
6	2258779	76.21	239.6
6	2261873	76.31	239.6
6	2264967	76.41	239.6
6	2268061	76.51	239.6
6	2271155	76.61	239.6
6	2274249	76.71	239.6
6	2277343	76.81	239.6
6	2280437	76.91	239.6
6	2283545	77.01	239.6
6	2286639	77.11	239.6
6	2289733	77.21	239.6
6	2292827	77.31	239.6
6	2295921	77.41	239.6
6	2299015	77.51	239.6
6	2302109	77.61	239.6
6	2305203	77.71	239.6
6	2308297	77.81	239.6
6	2311391	77.91	239.6
6	2314499	78.01	239.6
6	2317593	78.11	239.6
6	2320687	78.21	239.6
6	2323781	78.31	239.6
6	2326875	78.41	239.6
6	2329969	78.51	239.6
6	2333063	78.61	239.6
6	2336157	78.71	239.6
6	2339251	78.81	239.6
6	2342345	78.91	239.6
6	2345453	79.01	239.6
6	2348547	79.11	239.6
6	2351641	79.21	239.6
6	2354735	79.31	239.6
6	2357829	79.41	239.6
[...]
210	1048488	37.11	9
210	1051582	37.21	9
210	1054676	37.31	9
210	1057770	37.41	9
210	1060864	37.51	9
210	1063958	37.61	9
210	1067052	37.71	9
210	1070146	37.81	9
210	1073240	37.91	9
210	1076348	38.01	9
210	1079442	38.11	9
210	1082536	38.21	9
210	1085630	38.31	9
210	1088724	38.41	9
210	1091818	38.51	9
210	1094912	38.61	9
210	1098006	38.71	9
210	1101100	38.81	9
210	1104194	38.91	9
210	1107302	39.01	9
210	1110396	39.11	9
210	1113490	39.21	9
210	1116584	39.31	9
210	1119678	39.41	9
210	1122772	39.51	9
210	1125866	39.61	9
210	1128960	39.71	9
210	1132054	39.81	9
210	1135148	39.91	9
210	1138256	40.01	9
210	1141350	40.11	9
210	1144444	40.21	9
210	1147538	40.31	9
210	1150632	40.41	9
210	1153726	40.51	9
210	1156820	40.61	9
210	1159914	40.71	9
210	1163008	40.81	9
210	1166102	40.91	9
210	1169210	41.01	9
210	1172304	41.11	9
210	1175398	41.21	9
210	1178492	41.31	9
210	1181586	41.41	9
210	1184680	41.51	9
210	1187774	41.61	9
210	1190868	41.71	9
210	1193962	41.81	9
210	1197056	41.91	9
210	1200164	42.01	9
210	1203258	42.11	9
210	1206352	42.21	9
210	1209446	42.31	9
210	1212540	42.41	9
210	1215634	42.51	9
210	1218728	42.61	9
210	1221822	42.71	9
210	1224916	42.81	9
210	1228010	42.91	9
210	1231118	43.01	9
210	1234212	43.11	9
210	1237306	43.21	9
210	1240400	43.31	9
210	1243494	43.41	9
210	1246588	43.51	9
210	1249682	43.61	9
210	1252776	43.71	9
210	1255870	43.81	9
210	1258964	43.91	9
210	1262072	44.01	9
210	1265166	44.11	9
210	1268260	44.21	9
210	1271354	44.31	9
210	1274448	44.41	9
210	1277542	44.51	9
210	1280636	44.61	9
210	1283730	44.71	9
210	1286824	44.81	9
210	1289918	44.91	9
210	1293026	45.01	9
210	1296120	45.11	9
210	1299214	45.21	9
210	1302308	45.31	9
210	1305402	45.41	9
210	1308496	45.51	9
210	1311590	45.61	9
210	1314684	45.71	9
210	1317778	45.81	9
210	1320872	45.91	9
210	1323980	46.01	9
210	1327074	46.11	9
210	1330168	46.21	9
210	1333262	46.31	9
210	1336356	46.41	9
210	1339450	46.51	9
210	1342544	46.61	9
210	1345638	46.71	9
210	1348732	46.81	9
210	1351826	46.91	9
210	1354934	47.01	9
210	1358028	47.11	9
210	1361122	47.21	9
210	1364216	47.31	9
210	1367310	47.41	9
210	1370404	47.51	9
210	1373498	47.61	9
210	1376592	47.71	9
210	1379686	47.81	9
210	1382780	47.91	9
210	1385888	48.01	9
210	1388982	48.11	9
210	1392076	48.21	9
210	1395170	48.31	9
210	1398264	48.41	9
210	1401358	48.51	9
210	1404452	48.61	9
210	1407546	48.71	9
210	1410640	48.81	9
210	1413734	48.91	9
210	1416842	49.01	9
210	1419936	49.11	9
210	1423030	49.21	9
210	1426124	49.31	9
210	1429218	49.41	9
210	1432312	49.51	9
210	1435406	49.61	9
210	1438500	49.71	9
210	1441594	49.81	9
210	1444688	49.91	9
210	1447796	50.01	9
210	1450890	50.11	9
210	1453984	50.21	9
210	1457078	50.31	9
210	1460172	50.41	9
210	1463266	50.51	9
210	1466360	50.61	9
210	1469454	50.71	9
210	1472548	50.81	9
210	1475642	50.91	9
210	1478750	51.01	9
210	1481844	51.11	9
210	1484938	51.21	9
210	1488032	51.31	9
210	1491126	51.41	9
210	1494220	51.51	9
210	1497314	51.61	9
210	1500408	51.71	9
210	1503502	51.81	9
210	1506596	51.91	9
210	1509704	52.01	9
210	1512798	52.11	9
210	1515892	52.21	9
210	1518986	52.31	9
210	1522080	52.41	9
210	1525174	52.51	9
210	1528268	52.61	9
210	1531362	52.71	9
210	1534456	52.81	9
210	1537550	52.91	9
210	1540658	53.01	9
210	1543752	53.11	9
210	1546846	53.21	9
210	1549940	53.31	9
210	1553034	53.41	9
210	1556128	53.51	9
210	1559222	53.61	9
210	1562316	53.71	9
210	1565410	53.81	9
210	1568504	53.91	9
210	1571612	54.01	9
210	1574706	54.11	9
210	1577800	54.21	9
210	1580894	54.31	9
210	1583988	54.41	9
210	1587082	54.51	9
210	1590176	54.61	9
210	1593270	54.71	9
210	1596364	54.81	9
210	1599458	54.91	9
210	1602566	55.01	9
210	1605660	55.11	9
210	1608754	55.21	9
210	1611848	55.31	9
210	1614942	55.41	9
210	1618036	55.51	9
210	1621130	55.61	9
210	1624224	55.71	9
210	1627318	55.81	9
210	1630412	55.91	9
210	1633520	56.01	9
210	1636614	56.11	9
210	1639708	56.21	9
210	1642802	56.31	9
210	1645896	56.41	9
210	1648990	56.51	9
210	1652084	56.61	9
210	1655178	56.71	9
210	1658272	56.81	9
210	1661366	56.91	9
210	1664474	57.01	9
210	1667568	57.11	9
210	1670662	57.21	9
210	1673756	57.31	9
210	1676850	57.41	9
210	1679944	57.51	9
210	1683038	57.61	9
210	1686132	57.71	9
210	1689226	57.81	9
210	1692320	57.91	9
210	1695428	58.01	9
210	1698522	58.11	9
210	1701616	58.21	9
210	1704710	58.31	9
210	1707804	58.41	9
210	1710898	58.51	9
210	1713992	58.61	9
210	1717086	58.71	9
210	1720180	58.81	9
210	1723274	58.91	9
210	1726382	59.01	9
210	1729476	59.11	9
210	1732570	59.21	9
210	1735664	59.31	9
210	1738758	59.41	9
210	1741852	59.51	9
210	1744946	59.61	9
210	1748040	59.71	9
210	1751134	59.81	9
210	1754228	59.91	9
210	1757336	60.01	9
210	1760430	60.11	9
210	1763524	60.21	9
210	1766618	60.31	9
210	1769712	60.41	9
210	1772806	60.51	9
210	1775900	60.61	9
210	1778994	60.71	9
210	1782088	60.81	9
210	1785182	60.91	9
210	1788290	61.01	9
210	1791384	61.11	9
210	1794478	61.21	9
210	1797572	61.31	9
210	1800666	61.41	9
210	1803760	61.51	9
210	1806854	61.61	9
210	1809948	61.71	9
210	1813042	61.81	9
210	1816136	61.91	9
210	1819244	62.01	9
210	1822338	62.11	9
210	1825432	62.21	9
210	1828526	62.31	9
210	1831620	62.41	9
210	1834714	62.51	9
210	1837808	62.61	9
210	1840902	62.71	9
210	1843996	62.81	9
210	1847090	62.91	9
210	1850198	63.01	9
210	1853292	63.11	9
210	1856386	63.21	9
210	1859480	63.31	9
210	1862574	63.41	9
210	1865668	63.51	9
210	1868762	63.61	9
210	1871856	63.71	9
210	1874950	63.81	9
210	1878044	63.91	9
210	1881152	64.01	9
210	1884246	64.11	9
210	1887340	64.21	9
210	1890434	64.31	9
210	1893528	64.41	9
210	1896622	64.51	9
210	1899716	64.61	9
210	1902810	64.71	9
210	1905904	64.81	9
210	1908998	64.91	9
210	1912106	65.01	9
210	1915200	65.11	9
210	1918294	65.21	9
210	1921388	65.31	9
210	1924482	65.41	9
210	1927576	65.51	9
210	1930670	65.61	9
210	1933764	65.71	9
210	1936858	65.81	9
210	1939952	65.91	9
210	1943060	66.01	9
210	1946154	66.11	9
210	1949248	66.21	9
210	1952342	66.31	9
210	1955436	66.41	9
210	1958530	66.51	9
210	1961624	66.61	9
210	1964718	66.71	9
210	1967812	66.81	9
210	1970906	66.91	9
210	1974014	67.01	9
210	1977108	67.11	9
210	1980202	67.21	9
210	1983296	67.31	9
210	1986390	67.41	9
210	1989484	67.51	9
210	1992578	67.61	9
210	1995672	67.71	9
210	1998766	67.81	9
210	2001860	67.91	9
210	2004968	68.01	9
210	2008062	68.11	9
210	2011156	68.21	9
210	2014250	68.31	9
210	2017344	68.41	9
210	2020438	68.51	9
210	2023532	68.61	9
210	2026626	68.71	9
210	2029720	68.81	9
210	2032814	68.91	9
210	2035922	69.01	9
210	2039016	69.11	9
210	2042110	69.21	9
210	2045204	69.31	9
210	2048298	69.41	9
210	2051392	69.51	9
210	2054486	69.61	9
210	2057580	69.71	9
210	2060674	69.81	9
210	2063768	69.91	9
210	2066876	70.01	9
210	2069970	70.11	9
210	2073064	70.21	9
210	2076158	70.31	9
210	2079252	70.41	9
210	2082346	70.51	9
210	2085440	70.61	9
210	2088534	70.71	9
210	2091628	70.81	9
210	2094722	70.91	9
210	2097830	71.01	9
210	2100924	71.11	9
210	2104018	71.21	9
210	2107112	71.31	9
210	2110206	71.41	9
210	2113300	71.51	9
210	2116394	71.61	9
210	2119488	71.71	9
210	2122582	71.81	9
210	2125676	71.91	9
210	2128784	72.01	9
210	2131878	72.11	9
210	2134972	72.21	9
210	2138066	72.31	9
210	2141160	72.41	9
210	2144254	72.51	9
210	2147348	72.61	9
210	2150442	72.71	9
210	2153536	72.81	9
210	2156630	72.91	9
210	2159738	73.01	9
210	2162832	73.11	9
210	2165926	73.21	9
210	2169020	73.31	9
210	2172114	73.41	9
210	2175208	73.51	9
210	2178302	73.61	9
210	2181396	73.71	9
210	2184490	73.81	9
210	2187584	73.91	9
210	2190692	74.01	9
210	2193786	74.11	9
210	2196880	74.21	9
210	2199974	74.31	9
210	2203068	74.41	9
210	2206162	74.51	9
210	2209256	74.61	9
210	2212350	74.71	9
210	2215444	74.81	9
210	2218538	74.91	9
210	2221646	75.01	9
210	2224740	75.11	9
210	2227834	75.21	9
210	2230928	75.31	9
210	2234022	75.41	9
210	2237116	75.51	9
210	2240210	75.61	9
210	2243304	75.71	9
210	2246398	75.81	9
210	2249492	75.91	9
210	2252600	76.01	9
210	2255694	76.11	9
210	2258788	76.21	9
210	2261882	76.31	9
210	2264976	76.41	9
210	2268070	76.51	9
210	2271164	76.61	9
210	2274258	76.71	9
210	2277352	76.81	9
210	2280446	76.91	9
210	2283554	77.01	9
210	2286648	77.11	9
210	2289742	77.21	9
210	2292836	77.31	9
210	2295930	77.41	9
210	2299024	77.51	9
210	2302118	77.61	9
210	2305212	77.71	9
210	2308306	77.81	9
210	2311400	77.91	9
210	2314508	78.01	9
210	2317602	78.11	9
210	2320696	78.21	9
210	2323790	78.31	9
210	2326884	78.41	9
210	2329978	78.51	9
210	2333072	78.61	9
210	2336166	78.71	9
210	2339260	78.81	9
210	2342354	78.91	9
210	2345462	79.01	9
210	2348556	79.11	9
210	2351650	79.21	9
210	2354744	79.31	9
210	2357838	79.41	9
210	2360932	79.51	9
210	2364026	79.61	9
210	2367120	79.71	9
210	2370214	79.81	9
210	2373308	79.91	9
210	2376416	80.01	9
210	2379510	80.11	9
210	2382604	80.21	9
210	2385698	80.31	9
210	2388792	80.41	9
210	2391886	80.51	9
210	2394980	80.61	9
210	2398074	80.71	9
210	2401168	80.81	9
210	2404262	80.91	9
210	2407370	81.01	9
210	2410464	81.11	9
210	2413558	81.21	9
210	2416652	81.31	9
210	2419746	81.41	9
210	2422840	81.51	9
210	2425934	81.61	9
210	2429028	81.71	9
210	2432122	81.81	9
210	2435216	81.91	9
210	2438324	82.01	9
210	2441418	82.11	9
210	2444512	82.21	9
210	2447606	82.31	9
210	2450700	82.41	9
210	2453794	82.51	9
210	2456888	82.61	9
210	2459982	82.71	9
210	2463076	82.81	9
210	2466170	82.91	9
210	2469278	83.01	9
210	2472372	83.11	9
210	2475466	83.21	9
210	2478560	83.31	9
210	2481654	83.41	9
210	2484748	83.51	9
210	2487842	83.61	9
210	2490936	83.71	9
210	2494030	83.81	9
210	2497124	83.91	9
210	2500232	84.01	9
210	2503326	84.11	9
210	2506420	84.21	9
210	2509514	84.31	9
210	2512608	84.41	9
210	2515702	84.51	9
210	2518796	84.61	9
210	2521890	84.71	9
210	2524984	84.81	9
210	2528078	84.91	9
210	2531186	85.01	9
210	2534280	85.11	9
210	2537374	85.21	9
210	2540468	85.31	9
210	2543562	85.41	9
210	2546656	85.51	9
210	2549750	85.61	9
210	2552844	85.71	9
210	2555938	85.81	9
210	2559032	85.91	9
210	2562140	86.01	9
210	2565234	86.11	9
210	2568328	86.21	9
210	2571422	86.31	9
210	2574516	86.41	9
210	2577610	86.51	9
210	2580704	86.61	9
210	2583798	86.71	9
210	2586892	86.81	9
210	2589986	86.91	9
210	2593094	87.01	9
210	2596188	87.11	9
210	2599282	87.21	9
210	2602376	87.31	9
210	2605470	87.41	9
210	2608564	87.51	9
210	2611658	87.61	9
210	2614752	87.71	9
210	2617846	87.81	9
210	2620940	87.91	9
210	2624048	88.01	9
210	2627142	88.11	9
210	2630236	88.21	9
210	2633330	88.31	9
210	2636424	88.41	9
210	2639518	88.51	9
210	2642612	88.61	9
210	2645706	88.71	9
210	2648800	88.81	9
210	2651894	88.91	9
210	2655002	89.01	9
210	2658096	89.11	9
210	2661190	89.21	9
210	2664284	89.31	9
210	2667378	89.41	9
210	2670472	89.51	9
210	2673566	89.61	9
210	2676660	89.71	9
210	2679754	89.81	9
210	2682848	89.91	9
210	2685956	90.01	9
210	2689050	90.11	9
210	2692144	90.21	9
210	2695238	90.31	9
210	2698332	90.41	9
210	2701426	90.51	9
210	2704520	90.61	9
210	2707614	90.71	9
210	2710708	90.81	9
210	2713802	90.91	9
210	2716910	91.01	9
210	2720004	91.11	9
210	2723098	91.21	9
210	2726192	91.31	9
210	2729286	91.41	9
210	2732380	91.51	9
210	2735474	91.61	9
210	2738568	91.71	9
210	2741662	91.81	9
210	2744756	91.91	9
210	2747864	92.01	9
210	2750958	92.11	9
210	2754052	92.21	9
210	2757146	92.31	9
210	2760240	92.41	9
210	2763334	92.51	9
210	2766428	92.61	9
210	2769522	92.71	9
210	2772616	92.81	9
210	2775710	92.91	9
210	2778818	93.01	9
210	2781912	93.11	9
210	2785006	93.21	9
210	2788100	93.31	9
210	2791194	93.41	9
210	2794288	93.51	9
210	2797382	93.61	9
210	2800476	93.71	9
210	2803570	93.81	9
210	2806664	93.91	9
210	2809772	94.01	9
210	2812866	94.11	9
210	2815960	94.21	9
210	2819054	94.31	9
210	2822148	94.41	9
210	2825242	94.51	9
210	2828336	94.61	9
210	2831430	94.71	9
210	2834524	94.81	9
210	2837618	94.91	9
210	2840726	95.01	9
210	2843820	95.11	9
210	2846914	95.21	9
210	2850008	95.31	9
210	2853102	95.41	9
210	2856196	95.51	9
210	2859290	95.61	9
210	2862384	95.71	9
210	2865478	95.81	9
210	2868572	95.91	9
210	2871680	96.01	9
210	2874774	96.11	9
210	2877868	96.21	9
210	2880962	96.31	9
210	2884056	96.41	9
210	2887150	96.51	9
210	2890244	96.61	9
210	2893338	96.71	9
210	2896432	96.81	9
210	2899526	96.91	9
210	2902634	97.01	9
210	2905728	97.11	9
210	2908822	97.21	9
210	2911916	97.31	9
210	2915010	97.41	9
210	2918104	97.51	9
210	2921198	97.61	9
210	2924292	97.71	9
210	2927386	97.81	9
210	2930480	97.91	9
210	2933588	98.01	9
210	2936682	98.11	9
210	2939776	98.21	9
210	2942870	98.31	9
210	2945964	98.41	9
210	2949058	98.51	9
210	2952152	98.61	9
210	2955246	98.71	9
210	2958340	98.81	9
210	2961434	98.91	9
210	2964542	99.01	9
210	2967636	99.11	9
210	2970730	99.21	9
210	2973824	99.31	9
210	2976918	99.41	9
210	2980012	99.51	9
210	2983106	99.61	9
210	2986200	99.71	9
210	2989294	99.81	9
210	2992388	99.91	9
210	2995496	100.01	9
210	2998590	100.11	9
210	3001684	100.21	9
210	3004778	100.31	9
210	3007872	100.41	9
210	3010966	100.51	9
210	3014060	100.61	9
210	3017154	100.71	9
210	3020248	100.81	9
210	3023342	100.91	9
210	3026450	101.01	9
210	3029544	101.11	9
210	3032638	101.21	9
210	3035732	101.31	9
210	3038826	101.41	9
210	3041920	101.51	9
210	3045014	101.61	9
210	3048108	101.71	9
210	3051202	101.81	9
210	3054296	101.91	9
210	3057404	102.01	9
210	3060498	102.11	9
210	3063592	102.21	9
210	3066686	102.31	9
210	3069780	102.41	9
210	3072874	102.51	9
210	3075968	102.61	9
210	3079062	102.71	9
210	3082156	102.81	9
210	3085250	102.91	9
210	3088358	103.01	9
210	3091452	103.11	9
210	3094546	103.21	9
210	3097640	103.31	9
210	3100734	103.41	9
210	3103828	103.51	9
210	3106922	103.61	9
210	3110016	103.71	9
210	3113110	103.81	9
210	3116204	103.91	9
210	3119312	104.01	9
210	3122406	104.11	9
210	3125500	104.21	9
210	3128594	104.31	9
210	3131688	104.41	9
210	3134782	104.51	9
210	3137876	104.61	9
210	3140970	104.71	9
210	3144064	104.81	9
210	3147158	104.91	9
210	3150266	105.01	9
210	3153360	105.11	9
210	3156454	105.21	9
210	3159548	105.31	9
210	3162642	105.41	9
210	3165736	105.51	9
210	3168830	105.61	9
210	3171924	105.71	9
210	3175018	105.81	9
210	3178112	105.91	9
210	3181220	106.01	9
210	3184314	106.11	9
210	3187408	106.21	9
210	3190502	106.31	9
210	3193596	106.41	9
210	3196690	106.51	9
210	3199784	106.61	9
210	3202878	106.71	9
210	3205972	106.81	9
210	3209066	106.91	9
210	3212174	107.01	9
210	3215268	107.11	9
210	3218362	107.21	9
210	3221456	107.31	9
210	3224550	107.41	9
218	25404	4	0
218	55162	5	0
218	85476	6	0
218	116384	7	0
218	147338	8	0
218	178292	9	0
218	209246	10	0
218	240200	11	0
218	271154	12	0
218	302108	13	0
218	333062	14	0
218	364016	15	0
218	394970	16	0
218	425924	17	0
218	456878	18	0
218	487832	19	0
218	518786	20	0
218	549740	21	0
218	580694	22	0
218	611648	23	0
218	642602	24	0
218	673556	25	0
218	704510	26	0
218	735464	27	0
218	766418	28	0
218	797372	29	0
218	828326	30	0
218	859280	31	0
218	890234	32	0
218	921188	33	0
218	952142	34	0
218	983096	35	0
218	1014050	36	0
218	1045004	37	0
218	1075958	38	0
218	1106912	39	0
218	1137866	40	0
218	1168820	41	0
218	1199774	42	0
218	1230728	43	0
218	1261682	44	0
218	1292636	45	0
218	1323590	46	0
218	1354544	47	0
218	1385498	48	0
218	1416452	49	0
218	1447406	50	0
218	1478360	51	0
218	1509314	52	0
218	1540268	53	0
218	1571222	54	0
218	1602176	55	0
218	1633130	56	0
218	1664084	57	0
218	1695038	58	0
218	1725992	59	0
218	1756946	60	0
218	1787900	61	0
218	1818854	62	0
218	1849808	63	0
218	1880762	64	0
218	1911716	65	0
218	1942670	66	0
218	1973624	67	0
218	2004578	68	0
218	2035532	69	0
218	2066486	70	0
218	2097440	71	0
218	2128394	72	0
218	2159348	73	0
218	2190302	74	0
218	2221256	75	0
218	2252210	76	0
218	2283164	77	0
218	2314118	78	0
218	2345072	79	0
218	2376026	80	0
218	2406980	81	0
218	2437934	82	0
218	2468888	83	0
218	2499842	84	0
218	2530796	85	0
218	2561750	86	0
218	2592704	87	0
218	2623658	88	0
218	2654612	89	0
218	2685566	90	0
218	2716520	91	0
218	2747474	92	0
218	2778428	93	0
218	2809382	94	0
218	2840336	95	0
218	2871290	96	0
218	2902244	97	0
218	2933198	98	0
218	2964152	99	0
218	2995106	100	0
218	3026060	101	0
218	3057014	102	0
218	3087968	103	0
218	3118922	104	0
218	3149876	105	0
218	3180830	106	0
218	3211784	107	0
217	25404	4	0.046137
217	55162	5	0.067466
217	85476	6	0.06945
217	116384	7	0.06945
217	147338	8	0.06945
217	178292	9	0.06945
217	209246	10	0.06945
217	240200	11	0.06945
217	271154	12	0.06945
217	302108	13	0.06945
217	333062	14	0.06945
217	364016	15	0.06945
217	394970	16	0.06945
217	425924	17	0.06945
217	456878	18	0.06945
217	487832	19	0.06945
217	518786	20	0.06945
217	549740	21	0.06945
217	580694	22	0.06945
217	611648	23	0.06945
217	642602	24	0.06945
217	673556	25	0.06945
217	704510	26	0.06945
217	735464	27	0.06945
217	766418	28	0.06945
217	797372	29	0.06945
217	828326	30	0.06945
217	859280	31	0.06945
217	890234	32	0.06945
217	921188	33	0.06945
217	952142	34	0.06945
217	983096	35	0.06945
217	1014050	36	0.06945
217	1045004	37	0.06945
217	1075958	38	0.06945
217	1106912	39	0.06945
217	1137866	40	0.06945
217	1168820	41	0.06945
217	1199774	42	0.06945
217	1230728	43	0.06945
217	1261682	44	0.06945
217	1292636	45	0.06945
217	1323590	46	0.06945
217	1354544	47	0.06945
217	1385498	48	0.06945
217	1416452	49	0.06945
217	1447406	50	0.06945
217	1478360	51	0.06945
217	1509314	52	0.06945
217	1540268	53	0.06945
217	1571222	54	0.06945
217	1602176	55	0.06945
217	1633130	56	0.06945
217	1664084	57	0.06945
217	1695038	58	0.06945
217	1725992	59	0.06945
217	1756946	60	0.06945
217	1787900	61	0.06945
217	1818854	62	0.06945
217	1849808	63	0.06945
217	1880762	64	0.06945
217	1911716	65	0.06945
217	1942670	66	0.06945
217	1973624	67	0.06945
217	2004578	68	0.06945
217	2035532	69	0.06945
217	2066486	70	0.06945
217	2097440	71	0.06945
217	2128394	72	0.06945
217	2159348	73	0.06945
217	2190302	74	0.06945
217	2221256	75	0.06945
217	2252210	76	0.06945
217	2283164	77	0.06945
217	2314118	78	0.06945
217	2345072	79	0.06945
217	2376026	80	0.06945
217	2406980	81	0.06945
217	2437934	82	0.06945
217	2468888	83	0.06945
217	2499842	84	0.06945
217	2530796	85	0.06945
217	2561750	86	0.06945
217	2592704	87	0.06945
217	2623658	88	0.06945
217	2654612	89	0.06945
217	2685566	90	0.06945
217	2716520	91	0.06945
217	2747474	92	0.06945
217	2778428	93	0.06945
217	2809382	94	0.06945
217	2840336	95	0.06945
217	2871290	96	0.06945
217	2902244	97	0.06945
217	2933198	98	0.06945
217	2964152	99	0.06945
217	2995106	100	0.06945
217	3026060	101	0.06945
217	3057014	102	0.06945
217	3087968	103	0.06945
217	3118922	104	0.06945
217	3149876	105	0.06945
217	3180830	106	0.06945
217	3211784	107	0.06945
216	25404	4	9
216	55162	5	9
216	85476	6	9
216	116384	7	9
216	147338	8	9
216	178292	9	9
216	209246	10	9
216	240200	11	9
216	271154	12	9
216	302108	13	9
216	333062	14	9
216	364016	15	9
216	394970	16	9
216	425924	17	9
216	456878	18	9
216	487832	19	9
216	518786	20	9
216	549740	21	9
216	580694	22	9
216	611648	23	9
216	642602	24	9
216	673556	25	9
216	704510	26	9
216	735464	27	9
216	766418	28	9
216	797372	29	9
216	828326	30	9
216	859280	31	9
216	890234	32	9
216	921188	33	9
216	952142	34	9
216	983096	35	9
216	1014050	36	9
216	1045004	37	9
216	1075958	38	9
216	1106912	39	9
216	1137866	40	9
216	1168820	41	9
216	1199774	42	9
216	1230728	43	9
216	1261682	44	9
216	1292636	45	9
216	1323590	46	9
216	1354544	47	9
216	1385498	48	9
216	1416452	49	9
216	1447406	50	9
216	1478360	51	9
216	1509314	52	9
216	1540268	53	9
216	1571222	54	9
216	1602176	55	9
216	1633130	56	9
216	1664084	57	9
216	1695038	58	9
216	1725992	59	9
216	1756946	60	9
216	1787900	61	9
216	1818854	62	9
216	1849808	63	9
216	1880762	64	9
216	1911716	65	9
216	1942670	66	9
216	1973624	67	9
216	2004578	68	9
216	2035532	69	9
216	2066486	70	9
216	2097440	71	9
216	2128394	72	9
216	2159348	73	9
216	2190302	74	9
216	2221256	75	9
216	2252210	76	9
216	2283164	77	9
216	2314118	78	9
216	2345072	79	9
216	2376026	80	9
216	2406980	81	9
216	2437934	82	9
216	2468888	83	9
216	2499842	84	9
216	2530796	85	9
216	2561750	86	9
216	2592704	87	9
216	2623658	88	9
216	2654612	89	9
216	2685566	90	9
216	2716520	91	9
216	2747474	92	9
216	2778428	93	9
216	2809382	94	9
216	2840336	95	9
216	2871290	96	9
216	2902244	97	9
216	2933198	98	9
216	2964152	99	9
216	2995106	100	9
216	3026060	101	9
216	3057014	102	9
216	3087968	103	9
216	3118922	104	9
216	3149876	105	9
216	3180830	106	9
216	3211784	107	9
