version 2
run JoinManeuver-0-20181231-03:46:04-665
attr beaconInterval 0.1
attr caccOmegaN 0.2
attr caccXi 1
attr configname JoinManeuver
attr datetime 20181231-03:46:04
attr experiment JoinManeuver
attr inifile omnetpp.ini
attr iterationvars "$nCars=4, $platoonSize=4, $nLanes=1, $caccXi=1, $caccOmegaN=0.2, $ploegH=0.5, $leaderHeadway=1.2, $leaderSpeed=100, $beaconInterval=0.1, $priority=2, $packetSize=200"
attr iterationvarsf nCars=4,platoonSize=4,nLanes=1,caccXi=1,caccOmegaN=0.2,ploegH=0.5,leaderHeadway=1.2,leaderSpeed=100,beaconInterval=0.1,priority=2,packetSize=200-
attr leaderHeadway 1.2
attr leaderSpeed 100
attr measurement "$nCars=4, $platoonSize=4, $nLanes=1, $caccXi=1, $caccOmegaN=0.2, $ploegH=0.5, $leaderHeadway=1.2, $leaderSpeed=100, $beaconInterval=0.1, $priority=2, $packetSize=200"
attr nCars 4
attr nLanes 1
attr network Highway
attr packetSize 200
attr platoonSize 4
attr ploegH 0.5
attr priority 2
attr processid 665
attr repetition 0
attr replication #0
attr resultdir results
attr runnumber 0
attr seedset 0
param **.controllerOmegaN 0.2
param **.controllerXi 1
param **.coreDebug false
param **.debug false
param **.numberOfCars 4
param **.numberOfCarsPerPlatoon 4
param **.numberOfLanes 1
param **.numericController 0
param **.seed 0
param **.traffic.nCars 4
param **.traffic.nLanes 1
param **.traffic.platoonInsertDistance "5 m"
param **.traffic.platoonInsertHeadway "0 s"
param **.traffic.platoonInsertSpeed 100kmph
param **.traffic.platoonInsertTime "1 s"
param **.traffic.platoonLeaderHeadway 1.2s
param **.traffic.platoonSize 4
param **.traffic.platooningVType "\"vtypeauto\""
param **.traffic_type "\"JoinTrafficManager\""
param *.**.nic.mac1609_4.bitrate 6Mbps
param *.**.nic.mac1609_4.txPower 100mW
param *.**.nic.mac1609_4.useServiceChannel false
param *.**.nic.phy80211p.analogueModels "xmldoc(\"config.xml\")"
param *.**.nic.phy80211p.decider "xmldoc(\"config.xml\")"
param *.**.nic.phy80211p.maxTXPower 100mW
param *.**.nic.phy80211p.sensitivity -94dBm
param *.**.nic.phy80211p.thermalNoise -95dBm
param *.**.nic.phy80211p.usePropagationDelay true
param *.**.nic.phy80211p.useThermalNoise true
param *.annotations.draw false
param *.connectionManager.drawMaxIntfDist false
param *.connectionManager.maxInterfDist 2600m
param *.connectionManager.sendDirect true
param *.manager.autoShutdown true
param *.manager.configFile "\"./sumocfg/freeway.sumo.cfg\""
param *.manager.host "\"localhost\""
param *.manager.margin 25
param *.manager.moduleDisplayString "\"\""
param *.manager.moduleName "\"node\""
param *.manager.moduleType "\"org.car2x.veins.modules.application.platooning.PlatoonCar\""
param *.manager.updateInterval 0.01s
param *.manager.useGui true
param *.node[*].appl.joinManeuver "\"JoinAtBack\""
param *.node[*].appl_type "\"GeneralPlatooningApp\""
param *.node[*].helper_type "\"LocalPlatoonPositionHelper\""
param *.node[*].mobility.x 0
param *.node[*].mobility.y 0
param *.node[*].mobility.z 1.895
param *.node[*].prot.beaconingInterval 0.1s
param *.node[*].prot.packetSize 200
param *.node[*].prot.priority 2
param *.node[*].protocol_type "\"SimplePlatooningBeaconing\""
param *.node[*].scenario.accHeadway "0.1 s"
param *.node[*].scenario.caccC1 0.5
param *.node[*].scenario.caccOmegaN "0.2 Hz"
param *.node[*].scenario.caccXi 1
param *.node[*].scenario.controller "\"CACC\""
param *.node[*].scenario.engineTau "0.5 s"
param *.node[*].scenario.leaderHeadway 1.2s
param *.node[*].scenario.leaderSpeed 100kmph
param *.node[*].scenario.ploegH 0.5s
param *.node[*].scenario.ploegKd 0.7
param *.node[*].scenario.ploegKp 0.2
param *.node[*].scenario.useRealisticEngine false
param *.node[*].scenario_type "\"JoinManeuverScenario\""
param *.node[*].unicast.packetLossRate 0
param *.obstacles.debug false
param *.playgroundSizeX 65000m
param *.playgroundSizeY 25000m
param *.playgroundSizeZ 50m
param *.world.use2D false
param *.world.useTorus false

vector 1  Highway.node[0].appl  distance  ETV
vector 2  Highway.node[0].appl  relativeSpeed  ETV
vector 3  Highway.node[0].appl  nodeId  ETV
vector 7  Highway.node[0].appl  acceleration  ETV
vector 8  Highway.node[0].appl  controllerAcceleration  ETV
vector 4  Highway.node[0].appl  speed  ETV
vector 5  Highway.node[0].appl  posx  ETV
vector 6  Highway.node[0].appl  posy  ETV
vector 24  Highway.node[1].appl  distance  ETV
vector 25  Highway.node[1].appl  relativeSpeed  ETV
vector 26  Highway.node[1].appl  nodeId  ETV
vector 30  Highway.node[1].appl  acceleration  ETV
vector 31  Highway.node[1].appl  controllerAcceleration  ETV
vector 27  Highway.node[1].appl  speed  ETV
vector 28  Highway.node[1].appl  posx  ETV
vector 29  Highway.node[1].appl  posy  ETV
vector 47  Highway.node[2].appl  distance  ETV
vector 48  Highway.node[2].appl  relativeSpeed  ETV
vector 49  Highway.node[2].appl  nodeId  ETV
vector 53  Highway.node[2].appl  acceleration  ETV
vector 54  Highway.node[2].appl  controllerAcceleration  ETV
vector 50  Highway.node[2].appl  speed  ETV
vector 51  Highway.node[2].appl  posx  ETV
vector 52  Highway.node[2].appl  posy  ETV
vector 70  Highway.node[3].appl  distance  ETV
vector 71  Highway.node[3].appl  relativeSpeed  ETV
vector 72  Highway.node[3].appl  nodeId  ETV
vector 76  Highway.node[3].appl  acceleration  ETV
vector 77  Highway.node[3].appl  controllerAcceleration  ETV
vector 73  Highway.node[3].appl  speed  ETV
vector 74  Highway.node[3].appl  posx  ETV
vector 75  Highway.node[3].appl  posy  ETV
vector 84  Highway.node[3].prot  frontDelay  ETV
vector 82  Highway.node[3].prot  frontDelayId  ETV
vector 61  Highway.node[2].prot  frontDelay  ETV
vector 59  Highway.node[2].prot  frontDelayId  ETV
vector 37  Highway.node[1].prot  leaderDelay  ETV
vector 35  Highway.node[1].prot  leaderDelayId  ETV
vector 38  Highway.node[1].prot  frontDelay  ETV
vector 36  Highway.node[1].prot  frontDelayId  ETV
vector 60  Highway.node[2].prot  leaderDelay  ETV
vector 58  Highway.node[2].prot  leaderDelayId  ETV
vector 83  Highway.node[3].prot  leaderDelay  ETV
vector 81  Highway.node[3].prot  leaderDelayId  ETV
vector 9  Highway.node[0].prot  nodeId  ETV
vector 10  Highway.node[0].prot  busyTime  ETV
vector 11  Highway.node[0].prot  collisions  ETV
vector 32  Highway.node[1].prot  nodeId  ETV
vector 33  Highway.node[1].prot  busyTime  ETV
vector 34  Highway.node[1].prot  collisions  ETV
vector 55  Highway.node[2].prot  nodeId  ETV
vector 56  Highway.node[2].prot  busyTime  ETV
vector 57  Highway.node[2].prot  collisions  ETV
vector 78  Highway.node[3].prot  nodeId  ETV
vector 79  Highway.node[3].prot  busyTime  ETV
vector 80  Highway.node[3].prot  collisions  ETV
vector 93  Highway.node[4].appl  distance  ETV
vector 94  Highway.node[4].appl  relativeSpeed  ETV
vector 95  Highway.node[4].appl  nodeId  ETV
vector 99  Highway.node[4].appl  acceleration  ETV
vector 100  Highway.node[4].appl  controllerAcceleration  ETV
vector 96  Highway.node[4].appl  speed  ETV
vector 97  Highway.node[4].appl  posx  ETV
vector 98  Highway.node[4].appl  posy  ETV
vector 101  Highway.node[4].prot  nodeId  ETV
vector 102  Highway.node[4].prot  busyTime  ETV
vector 103  Highway.node[4].prot  collisions  ETV
vector 116  Highway.node[5].appl  distance  ETV
vector 117  Highway.node[5].appl  relativeSpeed  ETV
vector 118  Highway.node[5].appl  nodeId  ETV
vector 122  Highway.node[5].appl  acceleration  ETV
vector 123  Highway.node[5].appl  controllerAcceleration  ETV
vector 119  Highway.node[5].appl  speed  ETV
vector 120  Highway.node[5].appl  posx  ETV
vector 121  Highway.node[5].appl  posy  ETV
vector 124  Highway.node[5].prot  nodeId  ETV
vector 125  Highway.node[5].prot  busyTime  ETV
vector 126  Highway.node[5].prot  collisions  ETV
vector 139  Highway.node[6].appl  distance  ETV
vector 140  Highway.node[6].appl  relativeSpeed  ETV
vector 141  Highway.node[6].appl  nodeId  ETV
vector 145  Highway.node[6].appl  acceleration  ETV
vector 146  Highway.node[6].appl  controllerAcceleration  ETV
vector 142  Highway.node[6].appl  speed  ETV
vector 143  Highway.node[6].appl  posx  ETV
vector 144  Highway.node[6].appl  posy  ETV
vector 147  Highway.node[6].prot  nodeId  ETV
vector 148  Highway.node[6].prot  busyTime  ETV
vector 149  Highway.node[6].prot  collisions  ETV
vector 162  Highway.node[7].appl  distance  ETV
vector 163  Highway.node[7].appl  relativeSpeed  ETV
vector 164  Highway.node[7].appl  nodeId  ETV
vector 168  Highway.node[7].appl  acceleration  ETV
vector 169  Highway.node[7].appl  controllerAcceleration  ETV
vector 165  Highway.node[7].appl  speed  ETV
vector 166  Highway.node[7].appl  posx  ETV
vector 167  Highway.node[7].appl  posy  ETV
vector 185  Highway.node[8].appl  distance  ETV
vector 186  Highway.node[8].appl  relativeSpeed  ETV
vector 187  Highway.node[8].appl  nodeId  ETV
vector 191  Highway.node[8].appl  acceleration  ETV
vector 192  Highway.node[8].appl  controllerAcceleration  ETV
vector 188  Highway.node[8].appl  speed  ETV
vector 189  Highway.node[8].appl  posx  ETV
vector 190  Highway.node[8].appl  posy  ETV
vector 208  Highway.node[9].appl  distance  ETV
vector 209  Highway.node[9].appl  relativeSpeed  ETV
vector 210  Highway.node[9].appl  nodeId  ETV
vector 214  Highway.node[9].appl  acceleration  ETV
vector 215  Highway.node[9].appl  controllerAcceleration  ETV
vector 211  Highway.node[9].appl  speed  ETV
vector 212  Highway.node[9].appl  posx  ETV
vector 213  Highway.node[9].appl  posy  ETV
vector 231  Highway.node[10].appl  distance  ETV
vector 232  Highway.node[10].appl  relativeSpeed  ETV
vector 233  Highway.node[10].appl  nodeId  ETV
vector 237  Highway.node[10].appl  acceleration  ETV
vector 238  Highway.node[10].appl  controllerAcceleration  ETV
vector 234  Highway.node[10].appl  speed  ETV
vector 235  Highway.node[10].appl  posx  ETV
vector 236  Highway.node[10].appl  posy  ETV
vector 198  Highway.node[8].prot  leaderDelay  ETV
vector 196  Highway.node[8].prot  leaderDelayId  ETV
vector 221  Highway.node[9].prot  leaderDelay  ETV
vector 219  Highway.node[9].prot  leaderDelayId  ETV
vector 244  Highway.node[10].prot  leaderDelay  ETV
vector 242  Highway.node[10].prot  leaderDelayId  ETV
vector 175  Highway.node[7].prot  leaderDelay  ETV
vector 173  Highway.node[7].prot  leaderDelayId  ETV
vector 170  Highway.node[7].prot  nodeId  ETV
vector 171  Highway.node[7].prot  busyTime  ETV
vector 172  Highway.node[7].prot  collisions  ETV
vector 193  Highway.node[8].prot  nodeId  ETV
vector 194  Highway.node[8].prot  busyTime  ETV
vector 195  Highway.node[8].prot  collisions  ETV
vector 216  Highway.node[9].prot  nodeId  ETV
vector 217  Highway.node[9].prot  busyTime  ETV
vector 218  Highway.node[9].prot  collisions  ETV
vector 239  Highway.node[10].prot  nodeId  ETV
vector 240  Highway.node[10].prot  busyTime  ETV
vector 241  Highway.node[10].prot  collisions  ETV
8	632	1.11	-0.00218518
8	1192	1.21	-0.00213419
8	1752	1.31	-0.00205408
8	2312	1.41	-0.00195152
8	2873	1.51	-0.00183238
8	3433	1.61	-0.00170178
8	3993	1.71	-0.00156412
8	4554	1.81	-0.00142314
8	5114	1.91	-0.00128196
8	5680	2.01	-0.00114315
8	6240	2.11	-0.00100877
8	6800	2.21	-0.000880447
8	7360	2.31	-0.000759381
8	7920	2.41	-0.000646445
8	8480	2.51	-0.000542204
8	9040	2.61	-0.000446965
8	9600	2.71	-0.000360819
8	10160	2.81	-0.000283678
8	10720	2.91	-0.000215307
8	11285	3.01	-0.000155357
8	11979	3.11	-0.000103391
8	12714	3.21	-5.89069e-05
8	13449	3.31	-2.13575e-05
8	14184	3.41	9.82919e-06
8	14919	3.51	3.52368e-05
8	15654	3.61	5.54479e-05
8	16389	3.71	7.10335e-05
8	17125	3.81	8.25451e-05
8	17860	3.91	9.05081e-05
8	18600	4.01	9.54172e-05
8	19335	4.11	9.7733e-05
8	20070	4.21	9.78798e-05
8	20805	4.31	9.62447e-05
8	21540	4.41	9.31771e-05
8	22275	4.51	8.89894e-05
8	23010	4.61	8.39579e-05
8	23745	4.71	7.83245e-05
8	24480	4.81	7.22983e-05
8	25215	4.91	6.6058e-05
8	25956	5.01	5.9754e-05
8	26833	5.11	5.35107e-05
8	27759	5.21	4.74294e-05
8	28685	5.31	4.15898e-05
8	29611	5.41	3.60534e-05
8	30538	5.51	3.0865e-05
8	31464	5.61	2.60551e-05
8	32390	5.71	2.16419e-05
8	33316	5.81	1.76335e-05
8	34242	5.91	1.40289e-05
8	35174	6.01	1.08202e-05
8	36100	6.11	7.99392e-06
8	37026	6.21	5.532e-06
8	37952	6.31	3.41315e-06
8	38878	6.41	1.61374e-06
8	39804	6.51	1.08654e-07
8	40730	6.61	-1.12799e-06
8	41656	6.71	-2.12224e-06
8	42582	6.81	-2.89981e-06
8	43508	6.91	-3.48567e-06
8	44441	7.01	-3.90376e-06
8	45518	7.11	-4.17673e-06
8	46651	7.21	-4.32574e-06
8	47784	7.31	-4.3704e-06
8	48917	7.41	-4.32865e-06
8	50050	7.51	-4.21676e-06
8	51183	7.61	-4.04934e-06
8	52316	7.71	-3.83937e-06
8	53449	7.81	-3.59826e-06
8	54582	7.91	-3.33592e-06
8	55722	8.01	-3.06089e-06
8	56855	8.11	-2.78036e-06
8	57988	8.21	-2.50036e-06
8	59121	8.31	-2.22582e-06
8	60254	8.41	-1.96068e-06
8	61387	8.51	-1.708e-06
8	62520	8.61	-1.47009e-06
8	63653	8.71	-1.24855e-06
8	64786	8.81	-1.04441e-06
8	65919	8.91	-8.58219e-07
8	67059	9.01	-6.90082e-07
8	68192	9.11	-5.39774e-07
8	69325	9.21	-4.06787e-07
8	70458	9.31	-2.90396e-07
8	71591	9.41	-1.89707e-07
8	72724	9.51	-1.03704e-07
8	73857	9.61	-3.12909e-08
8	74990	9.71	2.86736e-08
8	76123	9.81	7.73515e-08
8	77256	9.91	1.15897e-07
8	78396	10.01	1.45439e-07
8	79529	10.11	1.67065e-07
8	80662	10.21	1.81809e-07
8	81795	10.31	1.90644e-07
8	82928	10.41	1.94472e-07
8	84061	10.51	1.94125e-07
8	85194	10.61	1.90358e-07
8	86327	10.71	1.83853e-07
8	87460	10.81	1.75219e-07
8	88593	10.91	1.64994e-07
8	89734	11.01	1.53647e-07
8	91500	11.11	1.41582e-07
8	93622	11.21	1.29146e-07
8	95743	11.31	1.16627e-07
8	97864	11.41	1.04266e-07
8	99986	11.51	9.22547e-08
8	102107	11.61	8.07471e-08
8	104228	11.71	6.98584e-08
8	106349	11.81	5.96732e-08
8	108470	11.91	5.02471e-08
8	110603	12.01	4.16133e-08
8	112724	12.11	3.37845e-08
8	114845	12.21	2.67558e-08
8	116966	12.31	2.05102e-08
8	119087	12.41	1.50187e-08
8	121208	12.51	1.02442e-08
8	123329	12.61	6.14406e-09
8	125450	12.71	2.67022e-09
8	127571	12.81	-2.27374e-10
8	129692	12.91	-2.60059e-09
8	131824	13.01	-4.50058e-09
8	133945	13.11	-5.97851e-09
8	136066	13.21	-7.08376e-09
8	138187	13.31	-7.86322e-09
8	140308	13.41	-8.36167e-09
8	142429	13.51	-8.62066e-09
8	144550	13.61	-8.67857e-09
8	146671	13.71	-8.57057e-09
8	148792	13.81	-8.32792e-09
8	150913	13.91	-7.97975e-09
8	153045	14.01	-7.55058e-09
8	155166	14.11	-7.06351e-09
8	157287	14.21	-6.53699e-09
8	159408	14.31	-5.98774e-09
8	161529	14.41	-5.42997e-09
8	163650	14.51	-4.87468e-09
8	165771	14.61	-4.33182e-09
8	167892	14.71	-3.80886e-09
8	170013	14.81	-3.31148e-09
8	172134	14.91	-2.84395e-09
8	174266	15.01	-2.40981e-09
8	176387	15.11	-2.01013e-09
8	178508	15.21	-1.64633e-09
8	180629	15.31	-1.31806e-09
8	182750	15.41	-1.02531e-09
8	184871	15.51	-7.66676e-10
8	186992	15.61	-5.40723e-10
8	189113	15.71	-3.46034e-10
8	191234	15.81	-1.79767e-10
8	193355	15.91	-4.01457e-11
8	195487	16.01	7.49623e-11
8	197608	16.11	1.68043e-10
8	199729	16.21	2.41585e-10
8	201850	16.31	2.97362e-10
8	203971	16.41	3.37863e-10
8	206092	16.51	3.64864e-10
8	208213	16.61	3.80851e-10
8	210334	16.71	3.86891e-10
8	212455	16.81	3.84759e-10
8	214576	16.91	3.76232e-10
8	216708	17.01	3.62377e-10
8	218829	17.11	3.44613e-10
8	220950	17.21	3.24007e-10
8	223071	17.31	3.00915e-10
8	225192	17.41	2.76756e-10
8	227313	17.51	2.52243e-10
8	229434	17.61	2.27374e-10
8	231555	17.71	2.0286e-10
8	233676	17.81	1.79057e-10
8	235797	17.91	1.56319e-10
8	237929	18.01	1.35003e-10
8	240050	18.11	1.15108e-10
8	242171	18.21	9.66338e-11
8	244292	18.31	7.99361e-11
8	246413	18.41	6.46594e-11
8	248534	18.51	5.08038e-11
8	250655	18.61	3.83693e-11
8	252776	18.71	2.73559e-11
8	254897	18.81	1.77636e-11
8	257018	18.91	9.59233e-12
8	259150	19.01	2.84217e-12
8	261271	19.11	-2.84217e-12
8	263392	19.21	-7.4607e-12
8	265513	19.31	-1.13687e-11
8	267634	19.41	-1.42109e-11
8	269755	19.51	-1.63425e-11
8	271876	19.61	-1.77636e-11
8	273997	19.71	-1.84741e-11
8	276118	19.81	-1.88294e-11
8	278239	19.91	-1.88294e-11
8	280371	20.01	-1.88294e-11
8	282492	20.11	-1.81188e-11
8	284613	20.21	-1.7053e-11
8	286734	20.31	-1.63425e-11
8	288855	20.41	-1.52767e-11
8	290976	20.51	-1.45661e-11
8	293097	20.61	-1.35003e-11
8	295218	20.71	-1.27898e-11
8	297339	20.81	-1.1724e-11
8	299460	20.91	-1.10134e-11
8	301592	21.01	-9.9476e-12
8	303713	21.11	-9.23706e-12
8	305834	21.21	-8.17124e-12
8	307955	21.31	-7.4607e-12
8	310076	21.41	-6.39488e-12
8	312197	21.51	-5.68434e-12
8	314318	21.61	-4.61853e-12
8	316439	21.71	-3.90799e-12
8	318560	21.81	-2.84217e-12
8	320681	21.91	-2.13163e-12
8	322813	22.01	-1.06581e-12
8	324934	22.11	-3.55271e-13
8	327055	22.21	7.10543e-13
8	329176	22.31	1.42109e-12
8	331297	22.41	2.13163e-12
8	333418	22.51	2.84217e-12
8	335539	22.61	3.19744e-12
8	337660	22.71	3.90799e-12
8	339781	22.81	4.26326e-12
8	341902	22.91	4.61853e-12
8	344034	23.01	5.32907e-12
8	346155	23.11	5.68434e-12
8	348276	23.21	5.68434e-12
8	350397	23.31	6.03961e-12
8	352518	23.41	6.39488e-12
8	354639	23.51	6.75016e-12
8	356760	23.61	6.75016e-12
8	358881	23.71	7.10543e-12
8	361002	23.81	7.10543e-12
8	363123	23.91	7.4607e-12
8	365255	24.01	7.4607e-12
8	367376	24.11	7.81597e-12
8	369497	24.21	7.81597e-12
8	371618	24.31	7.81597e-12
8	373739	24.41	7.81597e-12
8	375860	24.51	8.17124e-12
8	377981	24.61	8.17124e-12
8	380102	24.71	8.17124e-12
8	382223	24.81	8.17124e-12
8	384344	24.91	8.17124e-12
8	386477	25.01	8.52651e-12
8	389295	25.11	8.52651e-12
8	391420	25.21	8.52651e-12
8	393544	25.31	8.52651e-12
8	395668	25.41	8.52651e-12
8	397793	25.51	8.52651e-12
8	399917	25.61	8.52651e-12
8	402041	25.71	8.52651e-12
8	404166	25.81	8.52651e-12
8	406290	25.91	8.52651e-12
8	408425	26.01	8.88178e-12
8	410550	26.11	8.88178e-12
8	412674	26.21	8.88178e-12
8	414798	26.31	8.88178e-12
8	416923	26.41	8.88178e-12
8	419047	26.51	8.88178e-12
8	421171	26.61	8.88178e-12
8	423296	26.71	8.88178e-12
8	425420	26.81	8.88178e-12
8	427544	26.91	8.88178e-12
8	429680	27.01	8.88178e-12
8	431804	27.11	8.88178e-12
8	433928	27.21	8.88178e-12
8	436053	27.31	8.88178e-12
8	438177	27.41	8.88178e-12
8	440301	27.51	8.88178e-12
8	442426	27.61	8.88178e-12
8	444550	27.71	8.88178e-12
8	446674	27.81	8.88178e-12
8	448799	27.91	8.88178e-12
8	450934	28.01	8.88178e-12
8	453058	28.11	8.88178e-12
8	455183	28.21	8.88178e-12
8	457307	28.31	8.88178e-12
8	459431	28.41	8.88178e-12
8	461556	28.51	8.88178e-12
8	463680	28.61	8.88178e-12
8	465804	28.71	8.88178e-12
8	467929	28.81	8.88178e-12
8	470053	28.91	8.88178e-12
8	472188	29.01	8.88178e-12
8	474313	29.11	8.88178e-12
8	476437	29.21	8.88178e-12
8	478561	29.31	8.88178e-12
8	480686	29.41	8.88178e-12
8	482810	29.51	8.88178e-12
8	484934	29.61	8.88178e-12
8	487059	29.71	8.88178e-12
8	489183	29.81	8.88178e-12
8	491307	29.91	8.88178e-12
8	493443	30.01	8.88178e-12
8	495567	30.11	8.88178e-12
8	497691	30.21	8.88178e-12
8	499816	30.31	8.88178e-12
8	501940	30.41	8.88178e-12
8	504064	30.51	8.88178e-12
8	506189	30.61	8.88178e-12
8	508313	30.71	8.88178e-12
8	510437	30.81	8.88178e-12
8	512562	30.91	8.88178e-12
8	514697	31.01	8.88178e-12
8	516821	31.11	8.88178e-12
8	518946	31.21	8.88178e-12
8	521070	31.31	8.88178e-12
8	523194	31.41	8.88178e-12
8	525319	31.51	8.88178e-12
8	527443	31.61	8.88178e-12
8	529567	31.71	8.88178e-12
8	531692	31.81	8.88178e-12
8	533816	31.91	8.88178e-12
8	535951	32.01	8.88178e-12
8	538076	32.11	8.88178e-12
8	540200	32.21	8.88178e-12
8	542324	32.31	8.88178e-12
8	544449	32.41	8.88178e-12
8	546573	32.51	8.88178e-12
8	548697	32.61	8.88178e-12
8	550822	32.71	8.88178e-12
8	552946	32.81	8.88178e-12
8	555070	32.91	8.88178e-12
8	557206	33.01	8.88178e-12
8	559330	33.11	8.88178e-12
8	561454	33.21	8.88178e-12
8	563579	33.31	8.88178e-12
8	565703	33.41	8.88178e-12
8	567827	33.51	8.88178e-12
8	569952	33.61	8.88178e-12
8	572076	33.71	8.88178e-12
8	574200	33.81	8.88178e-12
8	576325	33.91	8.88178e-12
8	578460	34.01	8.88178e-12
8	580584	34.11	8.88178e-12
8	582709	34.21	8.88178e-12
8	584833	34.31	8.88178e-12
8	586957	34.41	8.88178e-12
8	589082	34.51	8.88178e-12
8	591206	34.61	8.88178e-12
8	593330	34.71	8.88178e-12
8	595455	34.81	8.88178e-12
8	597579	34.91	8.88178e-12
8	599714	35.01	8.88178e-12
8	601839	35.11	8.88178e-12
8	603963	35.21	8.88178e-12
8	606087	35.31	8.88178e-12
8	608212	35.41	8.88178e-12
8	610336	35.51	8.88178e-12
8	612460	35.61	8.88178e-12
8	614585	35.71	8.88178e-12
8	616709	35.81	8.88178e-12
8	618833	35.91	8.88178e-12
8	620969	36.01	8.88178e-12
8	623093	36.11	8.88178e-12
8	625217	36.21	8.88178e-12
8	627342	36.31	8.88178e-12
8	629466	36.41	8.88178e-12
8	631590	36.51	8.88178e-12
8	633715	36.61	8.88178e-12
8	635839	36.71	8.88178e-12
8	637963	36.81	8.88178e-12
8	640088	36.91	8.88178e-12
8	642223	37.01	8.88178e-12
8	644347	37.11	8.88178e-12
8	646472	37.21	8.88178e-12
8	648596	37.31	8.88178e-12
8	650720	37.41	8.88178e-12
8	652845	37.51	8.88178e-12
8	654969	37.61	8.88178e-12
8	657093	37.71	8.88178e-12
8	659218	37.81	8.88178e-12
8	661342	37.91	8.88178e-12
8	663477	38.01	8.88178e-12
8	665602	38.11	8.88178e-12
8	667726	38.21	8.88178e-12
8	669850	38.31	8.88178e-12
8	671975	38.41	8.88178e-12
8	674099	38.51	8.88178e-12
8	676223	38.61	8.88178e-12
8	678348	38.71	8.88178e-12
8	680472	38.81	8.88178e-12
8	682596	38.91	8.88178e-12
8	684732	39.01	8.88178e-12
8	686856	39.11	8.88178e-12
8	688980	39.21	8.88178e-12
8	691105	39.31	8.88178e-12
8	693229	39.41	8.88178e-12
8	695353	39.51	8.88178e-12
8	697478	39.61	8.88178e-12
8	699602	39.71	8.88178e-12
8	701726	39.81	8.88178e-12
8	703851	39.91	8.88178e-12
8	705986	40.01	8.88178e-12
8	708110	40.11	8.88178e-12
8	710235	40.21	8.88178e-12
8	712359	40.31	8.88178e-12
8	714483	40.41	8.88178e-12
8	716608	40.51	8.88178e-12
8	718732	40.61	8.88178e-12
8	720856	40.71	8.88178e-12
8	722981	40.81	8.88178e-12
8	725105	40.91	8.88178e-12
8	727240	41.01	8.88178e-12
8	729365	41.11	8.88178e-12
8	731489	41.21	8.88178e-12
8	733613	41.31	8.88178e-12
8	735738	41.41	8.88178e-12
8	737862	41.51	8.88178e-12
8	739986	41.61	8.88178e-12
8	742111	41.71	8.88178e-12
8	744235	41.81	8.88178e-12
8	746359	41.91	8.88178e-12
8	748495	42.01	8.88178e-12
8	750619	42.11	8.88178e-12
8	752743	42.21	8.88178e-12
8	754868	42.31	8.88178e-12
8	756992	42.41	8.88178e-12
8	759116	42.51	8.88178e-12
8	761241	42.61	8.88178e-12
8	763365	42.71	8.88178e-12
8	765489	42.81	8.88178e-12
8	767614	42.91	8.88178e-12
8	769749	43.01	8.88178e-12
8	771873	43.11	8.88178e-12
8	773998	43.21	8.88178e-12
8	776122	43.31	8.88178e-12
8	778246	43.41	8.88178e-12
8	780371	43.51	8.88178e-12
8	782495	43.61	8.88178e-12
8	784619	43.71	8.88178e-12
8	786744	43.81	8.88178e-12
8	788868	43.91	8.88178e-12
8	791003	44.01	8.88178e-12
8	793128	44.11	8.88178e-12
8	795252	44.21	8.88178e-12
8	797376	44.31	8.88178e-12
8	799501	44.41	8.88178e-12
8	801625	44.51	8.88178e-12
8	803749	44.61	8.88178e-12
8	805874	44.71	8.88178e-12
8	807998	44.81	8.88178e-12
8	810122	44.91	8.88178e-12
8	812258	45.01	8.88178e-12
8	814382	45.11	8.88178e-12
8	816506	45.21	8.88178e-12
8	818631	45.31	8.88178e-12
8	820755	45.41	8.88178e-12
8	822879	45.51	8.88178e-12
8	825004	45.61	8.88178e-12
8	827128	45.71	8.88178e-12
8	829252	45.81	8.88178e-12
8	831377	45.91	8.88178e-12
8	833512	46.01	8.88178e-12
8	835636	46.11	8.88178e-12
8	837761	46.21	8.88178e-12
8	839885	46.31	8.88178e-12
8	842009	46.41	8.88178e-12
8	844134	46.51	8.88178e-12
8	846258	46.61	8.88178e-12
8	848382	46.71	8.88178e-12
8	850507	46.81	8.88178e-12
8	852631	46.91	8.88178e-12
8	854766	47.01	8.88178e-12
8	856891	47.11	8.88178e-12
8	859015	47.21	8.88178e-12
8	861139	47.31	8.88178e-12
8	863264	47.41	8.88178e-12
8	865388	47.51	8.88178e-12
8	867512	47.61	8.88178e-12
8	869637	47.71	8.88178e-12
8	871761	47.81	8.88178e-12
8	873885	47.91	8.88178e-12
8	876021	48.01	8.88178e-12
8	878145	48.11	8.88178e-12
8	880269	48.21	8.88178e-12
8	882394	48.31	8.88178e-12
8	884518	48.41	8.88178e-12
8	886642	48.51	8.88178e-12
8	888767	48.61	8.88178e-12
8	890891	48.71	8.88178e-12
8	893015	48.81	8.88178e-12
8	895140	48.91	8.88178e-12
8	897275	49.01	8.88178e-12
8	899399	49.11	8.88178e-12
8	901524	49.21	8.88178e-12
8	903648	49.31	8.88178e-12
8	905772	49.41	8.88178e-12
8	907897	49.51	8.88178e-12
8	910021	49.61	8.88178e-12
8	912145	49.71	8.88178e-12
8	914270	49.81	8.88178e-12
8	916394	49.91	8.88178e-12
8	918529	50.01	8.88178e-12
8	920654	50.11	8.88178e-12
8	922778	50.21	8.88178e-12
8	924902	50.31	8.88178e-12
8	927027	50.41	8.88178e-12
8	929151	50.51	8.88178e-12
8	931275	50.61	8.88178e-12
8	933400	50.71	8.88178e-12
8	935524	50.81	8.88178e-12
8	937648	50.91	8.88178e-12
8	939784	51.01	8.88178e-12
8	941908	51.11	8.88178e-12
8	944032	51.21	8.88178e-12
8	946157	51.31	8.88178e-12
8	948281	51.41	8.88178e-12
8	950405	51.51	8.88178e-12
8	952530	51.61	8.88178e-12
8	954654	51.71	8.88178e-12
8	956778	51.81	8.88178e-12
8	958903	51.91	8.88178e-12
8	961038	52.01	8.88178e-12
8	963162	52.11	8.88178e-12
8	965287	52.21	8.88178e-12
8	967411	52.31	8.88178e-12
8	969535	52.41	8.88178e-12
8	971660	52.51	8.88178e-12
8	973784	52.61	8.88178e-12
8	975908	52.71	8.88178e-12
8	978033	52.81	8.88178e-12
8	980157	52.91	8.88178e-12
8	982292	53.01	8.88178e-12
8	984417	53.11	8.88178e-12
8	986541	53.21	8.88178e-12
8	988665	53.31	8.88178e-12
8	990790	53.41	8.88178e-12
8	992914	53.51	8.88178e-12
8	995038	53.61	8.88178e-12
8	997163	53.71	8.88178e-12
8	999287	53.81	8.88178e-12
8	1001411	53.91	8.88178e-12
8	1003547	54.01	8.88178e-12
8	1005671	54.11	8.88178e-12
8	1007795	54.21	8.88178e-12
8	1009920	54.31	8.88178e-12
8	1012044	54.41	8.88178e-12
8	1014168	54.51	8.88178e-12
8	1016293	54.61	8.88178e-12
8	1018417	54.71	8.88178e-12
8	1020541	54.81	8.88178e-12
8	1022666	54.91	8.88178e-12
8	1024801	55.01	8.88178e-12
8	1026925	55.11	8.88178e-12
8	1029050	55.21	8.88178e-12
8	1031174	55.31	8.88178e-12
8	1033298	55.41	8.88178e-12
8	1035423	55.51	8.88178e-12
8	1037547	55.61	8.88178e-12
8	1039671	55.71	8.88178e-12
8	1041796	55.81	8.88178e-12
8	1043920	55.91	8.88178e-12
8	1046055	56.01	8.88178e-12
8	1048180	56.11	8.88178e-12
8	1050304	56.21	8.88178e-12
8	1052428	56.31	8.88178e-12
8	1054553	56.41	8.88178e-12
8	1056677	56.51	8.88178e-12
8	1058801	56.61	8.88178e-12
8	1060926	56.71	8.88178e-12
8	1063050	56.81	8.88178e-12
8	1065174	56.91	8.88178e-12
8	1067310	57.01	8.88178e-12
8	1069434	57.11	8.88178e-12
8	1071558	57.21	8.88178e-12
8	1073683	57.31	8.88178e-12
8	1075807	57.41	8.88178e-12
8	1077931	57.51	8.88178e-12
8	1080056	57.61	8.88178e-12
8	1082180	57.71	8.88178e-12
8	1084304	57.81	8.88178e-12
8	1086429	57.91	8.88178e-12
8	1088564	58.01	8.88178e-12
8	1090688	58.11	8.88178e-12
8	1092813	58.21	8.88178e-12
8	1094937	58.31	8.88178e-12
8	1097061	58.41	8.88178e-12
8	1099186	58.51	8.88178e-12
8	1101310	58.61	8.88178e-12
8	1103434	58.71	8.88178e-12
8	1105559	58.81	8.88178e-12
8	1107683	58.91	8.88178e-12
8	1109818	59.01	8.88178e-12
8	1111943	59.11	8.88178e-12
8	1114067	59.21	8.88178e-12
8	1116191	59.31	8.88178e-12
8	1118316	59.41	8.88178e-12
8	1120440	59.51	8.88178e-12
8	1122564	59.61	8.88178e-12
8	1124689	59.71	8.88178e-12
8	1126813	59.81	8.88178e-12
8	1128937	59.91	8.88178e-12
8	1131073	60.01	8.88178e-12
8	1133197	60.11	8.88178e-12
8	1135321	60.21	8.88178e-12
8	1137446	60.31	8.88178e-12
8	1139570	60.41	8.88178e-12
8	1141694	60.51	8.88178e-12
8	1143819	60.61	8.88178e-12
8	1145943	60.71	8.88178e-12
8	1148067	60.81	8.88178e-12
8	1150192	60.91	8.88178e-12
8	1152327	61.01	8.88178e-12
8	1154451	61.11	8.88178e-12
8	1156576	61.21	8.88178e-12
8	1158700	61.31	8.88178e-12
8	1160824	61.41	8.88178e-12
8	1162949	61.51	8.88178e-12
8	1165073	61.61	8.88178e-12
8	1167197	61.71	8.88178e-12
8	1169322	61.81	8.88178e-12
8	1171446	61.91	8.88178e-12
8	1173581	62.01	8.88178e-12
8	1175706	62.11	8.88178e-12
8	1177830	62.21	8.88178e-12
8	1179954	62.31	8.88178e-12
8	1182079	62.41	8.88178e-12
8	1184203	62.51	8.88178e-12
8	1186327	62.61	8.88178e-12
8	1188452	62.71	8.88178e-12
8	1190576	62.81	8.88178e-12
8	1192700	62.91	8.88178e-12
8	1194836	63.01	8.88178e-12
8	1196960	63.11	8.88178e-12
8	1199084	63.21	8.88178e-12
8	1201209	63.31	8.88178e-12
8	1203333	63.41	8.88178e-12
8	1205457	63.51	8.88178e-12
8	1207582	63.61	8.88178e-12
8	1209706	63.71	8.88178e-12
8	1211830	63.81	8.88178e-12
8	1213955	63.91	8.88178e-12
8	1216090	64.01	8.88178e-12
8	1218214	64.11	8.88178e-12
8	1220339	64.21	8.88178e-12
8	1222463	64.31	8.88178e-12
8	1224587	64.41	8.88178e-12
8	1226712	64.51	8.88178e-12
8	1228836	64.61	8.88178e-12
8	1230960	64.71	8.88178e-12
8	1233085	64.81	8.88178e-12
8	1235209	64.91	8.88178e-12
8	1237344	65.01	8.88178e-12
8	1239469	65.11	8.88178e-12
8	1241593	65.21	8.88178e-12
8	1243717	65.31	8.88178e-12
8	1245842	65.41	8.88178e-12
8	1247966	65.51	8.88178e-12
8	1250090	65.61	8.88178e-12
8	1252215	65.71	8.88178e-12
8	1254339	65.81	8.88178e-12
8	1256463	65.91	8.88178e-12
8	1258599	66.01	8.88178e-12
8	1260723	66.11	8.88178e-12
8	1262847	66.21	8.88178e-12
8	1264972	66.31	8.88178e-12
8	1267096	66.41	8.88178e-12
8	1269220	66.51	8.88178e-12
8	1271345	66.61	8.88178e-12
8	1273469	66.71	8.88178e-12
8	1275593	66.81	8.88178e-12
8	1277718	66.91	8.88178e-12
8	1279853	67.01	8.88178e-12
8	1281977	67.11	8.88178e-12
8	1284102	67.21	8.88178e-12
8	1286226	67.31	8.88178e-12
8	1288350	67.41	8.88178e-12
8	1290475	67.51	8.88178e-12
8	1292599	67.61	8.88178e-12
8	1294723	67.71	8.88178e-12
8	1296848	67.81	8.88178e-12
8	1298972	67.91	8.88178e-12
8	1301107	68.01	8.88178e-12
8	1303232	68.11	8.88178e-12
8	1305356	68.21	8.88178e-12
8	1307480	68.31	8.88178e-12
8	1309605	68.41	8.88178e-12
8	1311729	68.51	8.88178e-12
8	1313853	68.61	8.88178e-12
8	1315978	68.71	8.88178e-12
8	1318102	68.81	8.88178e-12
8	1320226	68.91	8.88178e-12
8	1322362	69.01	8.88178e-12
8	1324486	69.11	8.88178e-12
8	1326610	69.21	8.88178e-12
8	1328735	69.31	8.88178e-12
8	1330859	69.41	8.88178e-12
8	1332983	69.51	8.88178e-12
8	1335108	69.61	8.88178e-12
8	1337232	69.71	8.88178e-12
8	1339356	69.81	8.88178e-12
8	1341481	69.91	8.88178e-12
8	1343616	70.01	8.88178e-12
8	1345740	70.11	8.88178e-12
8	1347865	70.21	8.88178e-12
8	1349989	70.31	8.88178e-12
8	1352113	70.41	8.88178e-12
8	1354238	70.51	8.88178e-12
8	1356362	70.61	8.88178e-12
8	1358486	70.71	8.88178e-12
8	1360611	70.81	8.88178e-12
8	1362735	70.91	8.88178e-12
8	1364870	71.01	8.88178e-12
8	1366995	71.11	8.88178e-12
8	1369119	71.21	8.88178e-12
8	1371243	71.31	8.88178e-12
8	1373368	71.41	8.88178e-12
8	1375492	71.51	8.88178e-12
8	1377616	71.61	8.88178e-12
8	1379741	71.71	8.88178e-12
8	1381865	71.81	8.88178e-12
8	1383989	71.91	8.88178e-12
8	1386125	72.01	8.88178e-12
8	1388249	72.11	8.88178e-12
8	1390373	72.21	8.88178e-12
8	1392498	72.31	8.88178e-12
8	1394622	72.41	8.88178e-12
8	1396746	72.51	8.88178e-12
8	1398871	72.61	8.88178e-12
8	1400995	72.71	8.88178e-12
8	1403119	72.81	8.88178e-12
8	1405244	72.91	8.88178e-12
8	1407379	73.01	8.88178e-12
8	1409503	73.11	8.88178e-12
8	1411628	73.21	8.88178e-12
8	1413752	73.31	8.88178e-12
8	1415876	73.41	8.88178e-12
8	1418001	73.51	8.88178e-12
8	1420125	73.61	8.88178e-12
8	1422249	73.71	8.88178e-12
8	1424374	73.81	8.88178e-12
8	1426498	73.91	8.88178e-12
8	1428633	74.01	8.88178e-12
8	1430758	74.11	8.88178e-12
8	1432882	74.21	8.88178e-12
8	1435006	74.31	8.88178e-12
8	1437131	74.41	8.88178e-12
8	1439255	74.51	8.88178e-12
8	1441379	74.61	8.88178e-12
8	1443504	74.71	8.88178e-12
8	1445628	74.81	8.88178e-12
8	1447752	74.91	8.88178e-12
8	1449888	75.01	8.88178e-12
8	1452012	75.11	8.88178e-12
8	1454136	75.21	8.88178e-12
8	1456261	75.31	8.88178e-12
8	1458385	75.41	8.88178e-12
8	1460509	75.51	8.88178e-12
8	1462634	75.61	8.88178e-12
8	1464758	75.71	8.88178e-12
8	1466882	75.81	8.88178e-12
8	1469007	75.91	8.88178e-12
8	1471142	76.01	8.88178e-12
8	1473266	76.11	8.88178e-12
8	1475391	76.21	8.88178e-12
8	1477515	76.31	8.88178e-12
8	1479639	76.41	8.88178e-12
8	1481764	76.51	8.88178e-12
8	1483888	76.61	8.88178e-12
8	1486012	76.71	8.88178e-12
8	1488137	76.81	8.88178e-12
8	1490261	76.91	8.88178e-12
8	1492396	77.01	8.88178e-12
8	1494521	77.11	8.88178e-12
8	1496645	77.21	8.88178e-12
8	1498769	77.31	8.88178e-12
8	1500894	77.41	8.88178e-12
8	1503018	77.51	8.88178e-12
8	1505142	77.61	8.88178e-12
8	1507267	77.71	8.88178e-12
8	1509391	77.81	8.88178e-12
8	1511515	77.91	8.88178e-12
8	1513651	78.01	8.88178e-12
8	1515775	78.11	8.88178e-12
8	1517899	78.21	8.88178e-12
8	1520024	78.31	8.88178e-12
8	1522148	78.41	8.88178e-12
8	1524272	78.51	8.88178e-12
8	1526397	78.61	8.88178e-12
8	1528521	78.71	8.88178e-12
8	1530645	78.81	8.88178e-12
8	1532770	78.91	8.88178e-12
8	1534905	79.01	8.88178e-12
8	1537029	79.11	8.88178e-12
8	1539154	79.21	8.88178e-12
8	1541278	79.31	8.88178e-12
8	1543402	79.41	8.88178e-12
8	1545527	79.51	8.88178e-12
8	1547651	79.61	8.88178e-12
8	1549775	79.71	8.88178e-12
8	1551900	79.81	8.88178e-12
8	1554024	79.91	8.88178e-12
8	1556159	80.01	8.88178e-12
8	1558284	80.11	8.88178e-12
8	1560408	80.21	8.88178e-12
8	1562532	80.31	8.88178e-12
8	1564657	80.41	8.88178e-12
8	1566781	80.51	8.88178e-12
8	1568905	80.61	8.88178e-12
8	1571030	80.71	8.88178e-12
8	1573154	80.81	8.88178e-12
8	1575278	80.91	8.88178e-12
8	1577414	81.01	8.88178e-12
8	1579538	81.11	8.88178e-12
8	1581662	81.21	8.88178e-12
8	1583787	81.31	8.88178e-12
8	1585911	81.41	8.88178e-12
8	1588035	81.51	8.88178e-12
8	1590160	81.61	8.88178e-12
8	1592284	81.71	8.88178e-12
8	1594408	81.81	8.88178e-12
8	1596533	81.91	8.88178e-12
8	1598668	82.01	8.88178e-12
8	1600792	82.11	8.88178e-12
8	1602917	82.21	8.88178e-12
8	1605041	82.31	8.88178e-12
8	1607165	82.41	8.88178e-12
8	1609290	82.51	8.88178e-12
8	1611414	82.61	8.88178e-12
8	1613538	82.71	8.88178e-12
8	1615663	82.81	8.88178e-12
8	1617787	82.91	8.88178e-12
8	1619922	83.01	8.88178e-12
8	1622047	83.11	8.88178e-12
8	1624171	83.21	8.88178e-12
8	1626295	83.31	8.88178e-12
8	1628420	83.41	8.88178e-12
8	1630544	83.51	8.88178e-12
8	1632668	83.61	8.88178e-12
8	1634793	83.71	8.88178e-12
8	1636917	83.81	8.88178e-12
8	1639041	83.91	8.88178e-12
8	1641177	84.01	8.88178e-12
8	1643301	84.11	8.88178e-12
8	1645425	84.21	8.88178e-12
8	1647550	84.31	8.88178e-12
8	1649674	84.41	8.88178e-12
8	1651798	84.51	8.88178e-12
8	1653923	84.61	8.88178e-12
8	1656047	84.71	8.88178e-12
8	1658171	84.81	8.88178e-12
8	1660296	84.91	8.88178e-12
8	1662431	85.01	8.88178e-12
8	1664555	85.11	8.88178e-12
8	1666680	85.21	8.88178e-12
8	1668804	85.31	8.88178e-12
8	1670928	85.41	8.88178e-12
8	1673053	85.51	8.88178e-12
8	1675177	85.61	8.88178e-12
8	1677301	85.71	8.88178e-12
8	1679426	85.81	8.88178e-12
8	1681550	85.91	8.88178e-12
8	1683685	86.01	8.88178e-12
8	1685810	86.11	8.88178e-12
8	1687934	86.21	8.88178e-12
8	1690058	86.31	8.88178e-12
8	1692183	86.41	8.88178e-12
8	1694307	86.51	8.88178e-12
8	1696431	86.61	8.88178e-12
8	1698556	86.71	8.88178e-12
8	1700680	86.81	8.88178e-12
8	1702804	86.91	8.88178e-12
8	1704940	87.01	8.88178e-12
8	1707064	87.11	8.88178e-12
8	1709188	87.21	8.88178e-12
8	1711313	87.31	8.88178e-12
8	1713437	87.41	8.88178e-12
8	1715561	87.51	8.88178e-12
8	1717686	87.61	8.88178e-12
8	1719810	87.71	8.88178e-12
8	1721934	87.81	8.88178e-12
8	1724059	87.91	8.88178e-12
8	1726194	88.01	8.88178e-12
8	1728318	88.11	8.88178e-12
8	1730443	88.21	8.88178e-12
8	1732567	88.31	8.88178e-12
8	1734691	88.41	8.88178e-12
8	1736816	88.51	8.88178e-12
8	1738940	88.61	8.88178e-12
8	1741064	88.71	8.88178e-12
8	1743189	88.81	8.88178e-12
8	1745313	88.91	8.88178e-12
8	1747448	89.01	8.88178e-12
8	1749573	89.11	8.88178e-12
8	1751697	89.21	8.88178e-12
8	1753821	89.31	8.88178e-12
8	1755946	89.41	8.88178e-12
8	1758070	89.51	8.88178e-12
8	1760194	89.61	8.88178e-12
8	1762319	89.71	8.88178e-12
8	1764443	89.81	8.88178e-12
8	1766567	89.91	8.88178e-12
8	1768703	90.01	8.88178e-12
8	1770827	90.11	8.88178e-12
8	1772951	90.21	8.88178e-12
8	1775076	90.31	8.88178e-12
8	1777200	90.41	8.88178e-12
8	1779324	90.51	8.88178e-12
8	1781449	90.61	8.88178e-12
8	1783573	90.71	8.88178e-12
8	1785697	90.81	8.88178e-12
8	1787822	90.91	8.88178e-12
8	1789957	91.01	8.88178e-12
8	1792081	91.11	8.88178e-12
8	1794206	91.21	8.88178e-12
8	1796330	91.31	8.88178e-12
8	1798454	91.41	8.88178e-12
8	1800579	91.51	8.88178e-12
8	1802703	91.61	8.88178e-12
8	1804827	91.71	8.88178e-12
8	1806952	91.81	8.88178e-12
8	1809076	91.91	8.88178e-12
8	1811211	92.01	8.88178e-12
8	1813336	92.11	8.88178e-12
8	1815460	92.21	8.88178e-12
8	1817584	92.31	8.88178e-12
8	1819709	92.41	8.88178e-12
8	1821833	92.51	8.88178e-12
8	1823957	92.61	8.88178e-12
8	1826082	92.71	8.88178e-12
8	1828206	92.81	8.88178e-12
8	1830330	92.91	8.88178e-12
8	1832466	93.01	8.88178e-12
8	1834590	93.11	8.88178e-12
8	1836714	93.21	8.88178e-12
8	1838839	93.31	8.88178e-12
8	1840963	93.41	8.88178e-12
8	1843087	93.51	8.88178e-12
8	1845212	93.61	8.88178e-12
8	1847336	93.71	8.88178e-12
8	1849460	93.81	8.88178e-12
8	1851585	93.91	8.88178e-12
8	1853720	94.01	8.88178e-12
8	1855844	94.11	8.88178e-12
8	1857969	94.21	8.88178e-12
8	1860093	94.31	8.88178e-12
8	1862217	94.41	8.88178e-12
8	1864342	94.51	8.88178e-12
8	1866466	94.61	8.88178e-12
8	1868590	94.71	8.88178e-12
8	1870715	94.81	8.88178e-12
8	1872839	94.91	8.88178e-12
8	1874974	95.01	8.88178e-12
8	1877099	95.11	8.88178e-12
8	1879223	95.21	8.88178e-12
8	1881347	95.31	8.88178e-12
8	1883472	95.41	8.88178e-12
8	1885596	95.51	8.88178e-12
8	1887720	95.61	8.88178e-12
8	1889845	95.71	8.88178e-12
8	1891969	95.81	8.88178e-12
8	1894093	95.91	8.88178e-12
8	1896229	96.01	8.88178e-12
8	1898353	96.11	8.88178e-12
8	1900477	96.21	8.88178e-12
8	1902602	96.31	8.88178e-12
8	1904726	96.41	8.88178e-12
8	1906850	96.51	8.88178e-12
8	1908975	96.61	8.88178e-12
8	1911099	96.71	8.88178e-12
8	1913223	96.81	8.88178e-12
8	1915348	96.91	8.88178e-12
8	1917483	97.01	8.88178e-12
8	1919607	97.11	8.88178e-12
8	1921732	97.21	8.88178e-12
8	1923856	97.31	8.88178e-12
8	1925980	97.41	8.88178e-12
8	1928105	97.51	8.88178e-12
8	1930229	97.61	8.88178e-12
8	1932353	97.71	8.88178e-12
8	1934478	97.81	8.88178e-12
8	1936602	97.91	8.88178e-12
8	1938737	98.01	8.88178e-12
8	1940862	98.11	8.88178e-12
8	1942986	98.21	8.88178e-12
8	1945110	98.31	8.88178e-12
8	1947235	98.41	8.88178e-12
8	1949359	98.51	8.88178e-12
8	1951483	98.61	8.88178e-12
8	1953608	98.71	8.88178e-12
8	1955732	98.81	8.88178e-12
8	1957856	98.91	8.88178e-12
8	1959992	99.01	8.88178e-12
8	1962116	99.11	8.88178e-12
8	1964240	99.21	8.88178e-12
8	1966365	99.31	8.88178e-12
8	1968489	99.41	8.88178e-12
8	1970613	99.51	8.88178e-12
8	1972738	99.61	8.88178e-12
8	1974862	99.71	8.88178e-12
8	1976986	99.81	8.88178e-12
8	1979111	99.91	8.88178e-12
8	1981246	100.01	8.88178e-12
8	1983370	100.11	8.88178e-12
8	1985495	100.21	8.88178e-12
8	1987619	100.31	8.88178e-12
8	1989743	100.41	8.88178e-12
8	1991868	100.51	8.88178e-12
8	1993992	100.61	8.88178e-12
8	1996116	100.71	8.88178e-12
8	1998241	100.81	8.88178e-12
8	2000365	100.91	8.88178e-12
8	2002500	101.01	8.88178e-12
8	2004625	101.11	8.88178e-12
8	2006749	101.21	8.88178e-12
8	2008873	101.31	8.88178e-12
8	2010998	101.41	8.88178e-12
8	2013122	101.51	8.88178e-12
8	2015246	101.61	8.88178e-12
8	2017371	101.71	8.88178e-12
8	2019495	101.81	8.88178e-12
8	2021619	101.91	8.88178e-12
8	2023755	102.01	8.88178e-12
8	2025879	102.11	8.88178e-12
8	2028003	102.21	8.88178e-12
8	2030128	102.31	8.88178e-12
8	2032252	102.41	8.88178e-12
8	2034376	102.51	8.88178e-12
8	2036501	102.61	8.88178e-12
8	2038625	102.71	8.88178e-12
8	2040749	102.81	8.88178e-12
8	2042874	102.91	8.88178e-12
8	2045009	103.01	8.88178e-12
8	2047133	103.11	8.88178e-12
8	2049258	103.21	8.88178e-12
8	2051382	103.31	8.88178e-12
8	2053506	103.41	8.88178e-12
8	2055631	103.51	8.88178e-12
8	2057755	103.61	8.88178e-12
8	2059879	103.71	8.88178e-12
8	2062004	103.81	8.88178e-12
8	2064128	103.91	8.88178e-12
8	2066263	104.01	8.88178e-12
8	2068388	104.11	8.88178e-12
8	2070512	104.21	8.88178e-12
8	2072636	104.31	8.88178e-12
8	2074761	104.41	8.88178e-12
8	2076885	104.51	8.88178e-12
8	2079009	104.61	8.88178e-12
8	2081134	104.71	8.88178e-12
8	2083258	104.81	8.88178e-12
8	2085382	104.91	8.88178e-12
8	2087518	105.01	8.88178e-12
8	2089642	105.11	8.88178e-12
8	2091766	105.21	8.88178e-12
8	2093891	105.31	8.88178e-12
8	2096015	105.41	8.88178e-12
8	2098139	105.51	8.88178e-12
8	2100264	105.61	8.88178e-12
8	2102388	105.71	8.88178e-12
8	2104512	105.81	8.88178e-12
8	2106637	105.91	8.88178e-12
8	2108772	106.01	8.88178e-12
8	2110896	106.11	8.88178e-12
8	2113021	106.21	8.88178e-12
8	2115145	106.31	8.88178e-12
8	2117269	106.41	8.88178e-12
8	2119394	106.51	8.88178e-12
8	2121518	106.61	8.88178e-12
8	2123642	106.71	8.88178e-12
8	2125767	106.81	8.88178e-12
8	2127891	106.91	8.88178e-12
8	2130026	107.01	8.88178e-12
8	2132151	107.11	8.88178e-12
8	2134275	107.21	8.88178e-12
8	2136399	107.31	8.88178e-12
8	2138524	107.41	8.88178e-12
8	2140648	107.51	8.88178e-12
8	2142772	107.61	8.88178e-12
8	2144897	107.71	8.88178e-12
8	2147021	107.81	8.88178e-12
8	2149145	107.91	8.88178e-12
8	2151281	108.01	8.88178e-12
8	2153405	108.11	8.88178e-12
8	2155529	108.21	8.88178e-12
8	2157654	108.31	8.88178e-12
8	2159778	108.41	8.88178e-12
8	2161902	108.51	8.88178e-12
8	2164027	108.61	8.88178e-12
8	2166151	108.71	8.88178e-12
8	2168275	108.81	8.88178e-12
8	2170400	108.91	8.88178e-12
8	2172535	109.01	8.88178e-12
8	2174659	109.11	8.88178e-12
8	2176784	109.21	8.88178e-12
8	2178908	109.31	8.88178e-12
8	2181032	109.41	8.88178e-12
8	2183157	109.51	8.88178e-12
8	2185281	109.61	8.88178e-12
8	2187405	109.71	8.88178e-12
8	2189530	109.81	8.88178e-12
8	2191654	109.91	8.88178e-12
8	2193789	110.01	8.88178e-12
8	2195914	110.11	8.88178e-12
8	2198038	110.21	8.88178e-12
8	2200162	110.31	8.88178e-12
8	2202287	110.41	8.88178e-12
8	2204411	110.51	8.88178e-12
8	2206535	110.61	8.88178e-12
8	2208660	110.71	8.88178e-12
8	2210784	110.81	8.88178e-12
8	2212908	110.91	8.88178e-12
8	2215044	111.01	8.88178e-12
8	2217168	111.11	8.88178e-12
8	2219292	111.21	8.88178e-12
8	2221417	111.31	8.88178e-12
8	2223541	111.41	8.88178e-12
8	2225665	111.51	8.88178e-12
8	2227790	111.61	8.88178e-12
8	2229914	111.71	8.88178e-12
8	2232038	111.81	8.88178e-12
8	2234163	111.91	8.88178e-12
8	2236298	112.01	8.88178e-12
8	2238422	112.11	8.88178e-12
8	2240547	112.21	8.88178e-12
8	2242671	112.31	8.88178e-12
8	2244795	112.41	8.88178e-12
8	2246920	112.51	8.88178e-12
8	2249044	112.61	8.88178e-12
8	2251168	112.71	8.88178e-12
8	2253293	112.81	8.88178e-12
8	2255417	112.91	8.88178e-12
8	2257552	113.01	8.88178e-12
8	2259677	113.11	8.88178e-12
8	2261801	113.21	8.88178e-12
8	2263925	113.31	8.88178e-12
8	2266050	113.41	8.88178e-12
8	2268174	113.51	8.88178e-12
8	2270298	113.61	8.88178e-12
8	2272423	113.71	8.88178e-12
8	2274547	113.81	8.88178e-12
8	2276671	113.91	8.88178e-12
8	2278807	114.01	8.88178e-12
8	2280931	114.11	8.88178e-12
8	2283055	114.21	8.88178e-12
8	2285180	114.31	8.88178e-12
8	2287304	114.41	8.88178e-12
8	2289428	114.51	8.88178e-12
8	2291553	114.61	8.88178e-12
8	2293677	114.71	8.88178e-12
8	2295801	114.81	8.88178e-12
8	2297926	114.91	8.88178e-12
8	2300061	115.01	8.88178e-12
8	2302185	115.11	8.88178e-12
8	2304310	115.21	8.88178e-12
8	2306434	115.31	8.88178e-12
8	2308558	115.41	8.88178e-12
8	2310683	115.51	8.88178e-12
8	2312807	115.61	8.88178e-12
8	2314931	115.71	8.88178e-12
8	2317056	115.81	8.88178e-12
8	2319180	115.91	8.88178e-12
8	2321315	116.01	8.88178e-12
8	2323440	116.11	8.88178e-12
8	2325564	116.21	8.88178e-12
8	2327688	116.31	8.88178e-12
8	2329813	116.41	8.88178e-12
8	2331937	116.51	8.88178e-12
8	2334061	116.61	8.88178e-12
8	2336186	116.71	8.88178e-12
8	2338310	116.81	8.88178e-12
8	2340434	116.91	8.88178e-12
8	2342570	117.01	8.88178e-12
8	2344694	117.11	8.88178e-12
8	2346818	117.21	8.88178e-12
8	2348943	117.31	8.88178e-12
8	2351067	117.41	8.88178e-12
8	2353191	117.51	8.88178e-12
8	2355316	117.61	8.88178e-12
8	2357440	117.71	8.88178e-12
8	2359564	117.81	8.88178e-12
8	2361689	117.91	8.88178e-12
8	2363824	118.01	8.88178e-12
8	2365948	118.11	8.88178e-12
8	2368073	118.21	8.88178e-12
8	2370197	118.31	8.88178e-12
8	2372321	118.41	8.88178e-12
8	2374446	118.51	8.88178e-12
8	2376570	118.61	8.88178e-12
8	2378694	118.71	8.88178e-12
8	2380819	118.81	8.88178e-12
8	2382943	118.91	8.88178e-12
8	2385078	119.01	8.88178e-12
8	2387203	119.11	8.88178e-12
8	2389327	119.21	8.88178e-12
8	2391451	119.31	8.88178e-12
8	2393576	119.41	8.88178e-12
8	2395700	119.51	8.88178e-12
8	2397824	119.61	8.88178e-12
8	2399949	119.71	8.88178e-12
8	2402073	119.81	8.88178e-12
8	2404197	119.91	8.88178e-12
7	632	1.11	-0.000358191
7	1192	1.21	-0.000681704
7	1752	1.31	-0.00093487
7	2312	1.41	-0.00112579
7	2873	1.51	-0.00126221
7	3433	1.61	-0.00135149
7	3993	1.71	-0.00140049
7	4554	1.81	-0.00141557
7	5114	1.91	-0.00140255
7	5680	2.01	-0.00136671
7	6240	2.11	-0.0013128
7	6800	2.21	-0.00124502
7	7360	2.31	-0.0011671
7	7920	2.41	-0.00108223
7	8480	2.51	-0.000993208
7	9040	2.61	-0.000902362
7	9600	2.71	-0.000811651
7	10160	2.81	-0.000722679
7	10720	2.91	-0.000636729
7	11285	3.01	-0.0005548
7	11979	3.11	-0.000477639
7	12714	3.21	-0.000405773
7	13449	3.31	-0.00033954
7	14184	3.41	-0.000279116
7	14919	3.51	-0.000224541
7	15654	3.61	-0.000175743
7	16389	3.71	-0.00013256
7	17125	3.81	-9.47571e-05
7	17860	3.91	-6.2046e-05
7	18600	4.01	-3.40986e-05
7	19335	4.11	-1.05605e-05
7	20070	4.21	8.93844e-06
7	20805	4.31	2.4774e-05
7	21540	4.41	3.73203e-05
7	22275	4.51	4.69433e-05
7	23010	4.61	5.39956e-05
7	23745	4.71	5.88124e-05
7	24480	4.81	6.1709e-05
7	25215	4.91	6.29785e-05
7	25956	5.01	6.28903e-05
7	26833	5.11	6.169e-05
7	27759	5.21	5.95988e-05
7	28685	5.31	5.68144e-05
7	29611	5.41	5.35112e-05
7	30538	5.51	4.98416e-05
7	31464	5.61	4.59373e-05
7	32390	5.71	4.19105e-05
7	33316	5.81	3.78555e-05
7	34242	5.91	3.38499e-05
7	35174	6.01	2.99569e-05
7	36100	6.11	2.62259e-05
7	37026	6.21	2.26948e-05
7	37952	6.31	1.93911e-05
7	38878	6.41	1.6333e-05
7	39804	6.51	1.35314e-05
7	40730	6.61	1.09904e-05
7	41656	6.71	8.70882e-06
7	42582	6.81	6.6809e-06
7	43508	6.91	4.89747e-06
7	44441	7.01	3.3466e-06
7	45518	7.11	2.01432e-06
7	46651	7.21	8.85256e-07
7	47784	7.31	-5.68459e-08
7	48917	7.41	-8.28678e-07
7	50050	7.51	-1.44699e-06
7	51183	7.61	-1.92826e-06
7	52316	7.71	-2.28849e-06
7	53449	7.81	-2.54296e-06
7	54582	7.91	-2.7061e-06
7	55722	8.01	-2.79139e-06
7	56855	8.11	-2.8113e-06
7	57988	8.21	-2.77721e-06
7	59121	8.31	-2.69943e-06
7	60254	8.41	-2.58721e-06
7	61387	8.51	-2.44874e-06
7	62520	8.61	-2.29123e-06
7	63653	8.71	-2.12092e-06
7	64786	8.81	-1.94317e-06
7	65919	8.91	-1.7625e-06
7	67059	9.01	-1.58267e-06
7	68192	9.11	-1.40677e-06
7	69325	9.21	-1.23723e-06
7	70458	9.31	-1.07596e-06
7	71591	9.41	-9.24364e-07
7	72724	9.51	-7.83424e-07
7	73857	9.61	-6.53753e-07
7	74990	9.71	-5.35652e-07
7	76123	9.81	-4.2916e-07
7	77256	9.91	-3.34103e-07
7	78396	10.01	-2.5013e-07
7	79529	10.11	-1.76757e-07
7	80662	10.21	-1.13395e-07
7	81795	10.31	-5.93825e-08
7	82928	10.41	-1.40084e-08
7	84061	10.51	2.34657e-08
7	85194	10.61	5.3787e-08
7	86327	10.71	7.76954e-08
7	87460	10.81	9.59155e-08
7	88593	10.91	1.09142e-07
7	89734	11.01	1.18035e-07
7	91500	11.11	1.23212e-07
7	93622	11.21	1.2525e-07
7	95743	11.31	1.24675e-07
7	97864	11.41	1.21968e-07
7	99986	11.51	1.17559e-07
7	102107	11.61	1.11834e-07
7	104228	11.71	1.05132e-07
7	106349	11.81	9.77476e-08
7	108470	11.91	8.99373e-08
7	110603	12.01	8.19171e-08
7	112724	12.11	7.38677e-08
7	114845	12.21	6.59401e-08
7	116966	12.31	5.82538e-08
7	119087	12.41	5.09036e-08
7	121208	12.51	4.39606e-08
7	123329	12.61	3.74765e-08
7	125450	12.71	3.14852e-08
7	127571	12.81	2.60055e-08
7	129692	12.91	2.10438e-08
7	131824	13.01	1.65958e-08
7	133945	13.11	1.26498e-08
7	136066	13.21	9.18554e-09
7	138187	13.31	6.17888e-09
7	140308	13.41	3.60174e-09
7	142429	13.51	1.42322e-09
7	144550	13.61	-3.90088e-10
7	146671	13.71	-1.8705e-09
7	148792	13.81	-3.05107e-09
7	150913	13.91	-3.96518e-09
7	153045	14.01	-4.64375e-09
7	155166	14.11	-5.11768e-09
7	157287	14.21	-5.41434e-09
7	159408	14.31	-5.56071e-09
7	161529	14.41	-5.58096e-09
7	163650	14.51	-5.49747e-09
7	165771	14.61	-5.33085e-09
7	167892	14.71	-5.09743e-09
7	170013	14.81	-4.81464e-09
7	172134	14.91	-4.49667e-09
7	174266	15.01	-4.15525e-09
7	176387	15.11	-3.80034e-09
7	178508	15.21	-3.44151e-09
7	180629	15.31	-3.08518e-09
7	182750	15.41	-2.73772e-09
7	184871	15.51	-2.40306e-09
7	186992	15.61	-2.08544e-09
7	189113	15.71	-1.78773e-09
7	191234	15.81	-1.51132e-09
7	193355	15.91	-1.25766e-09
7	195487	16.01	-1.02673e-09
7	197608	16.11	-8.18901e-10
7	199729	16.21	-6.33804e-10
7	201850	16.31	-4.70735e-10
7	203971	16.41	-3.28271e-10
7	206092	16.51	-2.05702e-10
7	208213	16.61	-1.00897e-10
7	210334	16.71	-1.35003e-11
7	212455	16.81	5.82645e-11
7	214576	16.91	1.16174e-10
7	216708	17.01	1.61648e-10
7	218829	17.11	1.95755e-10
7	220950	17.21	2.20624e-10
7	223071	17.31	2.36966e-10
7	225192	17.41	2.45848e-10
7	227313	17.51	2.4869e-10
7	229434	17.61	2.46914e-10
7	231555	17.71	2.40874e-10
7	233676	17.81	2.31282e-10
7	235797	17.91	2.19913e-10
7	237929	18.01	2.05702e-10
7	240050	18.11	1.91491e-10
7	242171	18.21	1.7657e-10
7	244292	18.31	1.59872e-10
7	246413	18.41	1.44595e-10
7	248534	18.51	1.30385e-10
7	250655	18.61	1.16174e-10
7	252776	18.71	1.01963e-10
7	254897	18.81	8.7752e-11
7	257018	18.91	7.35412e-11
7	259150	19.01	6.21725e-11
7	261271	19.11	5.15143e-11
7	263392	19.21	4.08562e-11
7	265513	19.31	3.16192e-11
7	267634	19.41	2.45137e-11
7	269755	19.51	1.74083e-11
7	271876	19.61	1.03029e-11
7	273997	19.71	6.03961e-12
7	276118	19.81	2.4869e-12
7	278239	19.91	-1.06581e-12
7	280371	20.01	-4.61853e-12
7	282492	20.11	-8.17124e-12
7	284613	20.21	-8.88178e-12
7	286734	20.31	-8.88178e-12
7	288855	20.41	-8.88178e-12
7	290976	20.51	-8.88178e-12
7	293097	20.61	-8.88178e-12
7	295218	20.71	-8.88178e-12
7	297339	20.81	-8.88178e-12
7	299460	20.91	-8.88178e-12
7	301592	21.01	-8.88178e-12
7	303713	21.11	-8.88178e-12
7	305834	21.21	-8.88178e-12
7	307955	21.31	-8.88178e-12
7	310076	21.41	-8.88178e-12
7	312197	21.51	-8.88178e-12
7	314318	21.61	-8.88178e-12
7	316439	21.71	-8.88178e-12
7	318560	21.81	-8.88178e-12
7	320681	21.91	-8.88178e-12
7	322813	22.01	-8.88178e-12
7	324934	22.11	-8.88178e-12
7	327055	22.21	-8.17124e-12
7	329176	22.31	-7.4607e-12
7	331297	22.41	-6.75016e-12
7	333418	22.51	-6.03961e-12
7	335539	22.61	-5.68434e-12
7	337660	22.71	-4.9738e-12
7	339781	22.81	-4.61853e-12
7	341902	22.91	-4.26326e-12
7	344034	23.01	-3.55271e-12
7	346155	23.11	-3.19744e-12
7	348276	23.21	-3.19744e-12
7	350397	23.31	-2.84217e-12
7	352518	23.41	-2.4869e-12
7	354639	23.51	-2.13163e-12
7	356760	23.61	-2.13163e-12
7	358881	23.71	-1.77636e-12
7	361002	23.81	-1.77636e-12
7	363123	23.91	-1.42109e-12
7	365255	24.01	-1.42109e-12
7	367376	24.11	-1.06581e-12
7	369497	24.21	-1.06581e-12
7	371618	24.31	-1.06581e-12
7	373739	24.41	-1.06581e-12
7	375860	24.51	-7.10543e-13
7	377981	24.61	-7.10543e-13
7	380102	24.71	-7.10543e-13
7	382223	24.81	-7.10543e-13
7	384344	24.91	-7.10543e-13
7	386477	25.01	-3.55271e-13
7	389295	25.11	-3.55271e-13
7	391420	25.21	-3.55271e-13
7	393544	25.31	-3.55271e-13
7	395668	25.41	-3.55271e-13
7	397793	25.51	-3.55271e-13
7	399917	25.61	-3.55271e-13
7	402041	25.71	-3.55271e-13
7	404166	25.81	-3.55271e-13
7	406290	25.91	-3.55271e-13
7	408425	26.01	0
7	410550	26.11	0
7	412674	26.21	0
7	414798	26.31	0
7	416923	26.41	0
7	419047	26.51	0
7	421171	26.61	0
7	423296	26.71	0
7	425420	26.81	0
7	427544	26.91	0
7	429680	27.01	0
7	431804	27.11	0
7	433928	27.21	0
7	436053	27.31	0
7	438177	27.41	0
7	440301	27.51	0
7	442426	27.61	0
7	444550	27.71	0
7	446674	27.81	0
7	448799	27.91	0
7	450934	28.01	0
7	453058	28.11	0
7	455183	28.21	0
7	457307	28.31	0
7	459431	28.41	0
7	461556	28.51	0
7	463680	28.61	0
7	465804	28.71	0
7	467929	28.81	0
7	470053	28.91	0
7	472188	29.01	0
7	474313	29.11	0
7	476437	29.21	0
7	478561	29.31	0
7	480686	29.41	0
7	482810	29.51	0
7	484934	29.61	0
7	487059	29.71	0
7	489183	29.81	0
7	491307	29.91	0
7	493443	30.01	0
7	495567	30.11	0
7	497691	30.21	0
7	499816	30.31	0
7	501940	30.41	0
7	504064	30.51	0
7	506189	30.61	0
7	508313	30.71	0
7	510437	30.81	0
7	512562	30.91	0
7	514697	31.01	0
7	516821	31.11	0
7	518946	31.21	0
7	521070	31.31	0
7	523194	31.41	0
7	525319	31.51	0
7	527443	31.61	0
7	529567	31.71	0
7	531692	31.81	0
7	533816	31.91	0
7	535951	32.01	0
7	538076	32.11	0
7	540200	32.21	0
7	542324	32.31	0
7	544449	32.41	0
7	546573	32.51	0
7	548697	32.61	0
7	550822	32.71	0
7	552946	32.81	0
7	555070	32.91	0
7	557206	33.01	0
7	559330	33.11	0
7	561454	33.21	0
7	563579	33.31	0
7	565703	33.41	0
7	567827	33.51	0
7	569952	33.61	0
7	572076	33.71	0
7	574200	33.81	0
7	576325	33.91	0
7	578460	34.01	0
7	580584	34.11	0
7	582709	34.21	0
7	584833	34.31	0
7	586957	34.41	0
7	589082	34.51	0
7	591206	34.61	0
7	593330	34.71	0
7	595455	34.81	0
7	597579	34.91	0
7	599714	35.01	0
7	601839	35.11	0
7	603963	35.21	0
7	606087	35.31	0
7	608212	35.41	0
7	610336	35.51	0
7	612460	35.61	0
7	614585	35.71	0
7	616709	35.81	0
7	618833	35.91	0
7	620969	36.01	0
7	623093	36.11	0
7	625217	36.21	0
7	627342	36.31	0
7	629466	36.41	0
7	631590	36.51	0
7	633715	36.61	0
7	635839	36.71	0
7	637963	36.81	0
7	640088	36.91	0
7	642223	37.01	0
7	644347	37.11	0
7	646472	37.21	0
7	648596	37.31	0
7	650720	37.41	0
7	652845	37.51	0
7	654969	37.61	0
7	657093	37.71	0
7	659218	37.81	0
7	661342	37.91	0
7	663477	38.01	0
7	665602	38.11	0
7	667726	38.21	0
7	669850	38.31	0
7	671975	38.41	0
7	674099	38.51	0
7	676223	38.61	0
7	678348	38.71	0
7	680472	38.81	0
7	682596	38.91	0
7	684732	39.01	0
7	686856	39.11	0
7	688980	39.21	0
7	691105	39.31	0
7	693229	39.41	0
7	695353	39.51	0
7	697478	39.61	0
7	699602	39.71	0
7	701726	39.81	0
7	703851	39.91	0
7	705986	40.01	0
7	708110	40.11	0
7	710235	40.21	0
7	712359	40.31	0
7	714483	40.41	0
7	716608	40.51	0
7	718732	40.61	0
7	720856	40.71	0
7	722981	40.81	0
7	725105	40.91	0
7	727240	41.01	0
7	729365	41.11	0
7	731489	41.21	0
7	733613	41.31	0
7	735738	41.41	0
7	737862	41.51	0
7	739986	41.61	0
7	742111	41.71	0
7	744235	41.81	0
7	746359	41.91	0
7	748495	42.01	0
7	750619	42.11	0
7	752743	42.21	0
7	754868	42.31	0
7	756992	42.41	0
7	759116	42.51	0
7	761241	42.61	0
7	763365	42.71	0
7	765489	42.81	0
7	767614	42.91	0
7	769749	43.01	0
7	771873	43.11	0
7	773998	43.21	0
7	776122	43.31	0
7	778246	43.41	0
7	780371	43.51	0
7	782495	43.61	0
7	784619	43.71	0
7	786744	43.81	0
7	788868	43.91	0
7	791003	44.01	0
7	793128	44.11	0
7	795252	44.21	0
7	797376	44.31	0
7	799501	44.41	0
7	801625	44.51	0
7	803749	44.61	0
7	805874	44.71	0
7	807998	44.81	0
7	810122	44.91	0
7	812258	45.01	0
7	814382	45.11	0
7	816506	45.21	0
7	818631	45.31	0
7	820755	45.41	0
7	822879	45.51	0
7	825004	45.61	0
7	827128	45.71	0
7	829252	45.81	0
7	831377	45.91	0
7	833512	46.01	0
7	835636	46.11	0
7	837761	46.21	0
7	839885	46.31	0
7	842009	46.41	0
7	844134	46.51	0
7	846258	46.61	0
7	848382	46.71	0
7	850507	46.81	0
7	852631	46.91	0
7	854766	47.01	0
7	856891	47.11	0
7	859015	47.21	0
7	861139	47.31	0
7	863264	47.41	0
7	865388	47.51	0
7	867512	47.61	0
7	869637	47.71	0
7	871761	47.81	0
7	873885	47.91	0
7	876021	48.01	0
7	878145	48.11	0
7	880269	48.21	0
7	882394	48.31	0
7	884518	48.41	0
7	886642	48.51	0
7	888767	48.61	0
7	890891	48.71	0
7	893015	48.81	0
7	895140	48.91	0
7	897275	49.01	0
7	899399	49.11	0
7	901524	49.21	0
7	903648	49.31	0
7	905772	49.41	0
7	907897	49.51	0
7	910021	49.61	0
7	912145	49.71	0
7	914270	49.81	0
7	916394	49.91	0
7	918529	50.01	0
7	920654	50.11	0
7	922778	50.21	0
7	924902	50.31	0
7	927027	50.41	0
7	929151	50.51	0
7	931275	50.61	0
7	933400	50.71	0
7	935524	50.81	0
7	937648	50.91	0
7	939784	51.01	0
7	941908	51.11	0
7	944032	51.21	0
7	946157	51.31	0
7	948281	51.41	0
7	950405	51.51	0
7	952530	51.61	0
7	954654	51.71	0
7	956778	51.81	0
7	958903	51.91	0
7	961038	52.01	0
7	963162	52.11	0
7	965287	52.21	0
7	967411	52.31	0
7	969535	52.41	0
7	971660	52.51	0
7	973784	52.61	0
7	975908	52.71	0
7	978033	52.81	0
7	980157	52.91	0
7	982292	53.01	0
7	984417	53.11	0
7	986541	53.21	0
7	988665	53.31	0
7	990790	53.41	0
7	992914	53.51	0
7	995038	53.61	0
7	997163	53.71	0
7	999287	53.81	0
7	1001411	53.91	0
7	1003547	54.01	0
7	1005671	54.11	0
7	1007795	54.21	0
7	1009920	54.31	0
7	1012044	54.41	0
7	1014168	54.51	0
7	1016293	54.61	0
7	1018417	54.71	0
7	1020541	54.81	0
7	1022666	54.91	0
7	1024801	55.01	0
7	1026925	55.11	0
7	1029050	55.21	0
7	1031174	55.31	0
7	1033298	55.41	0
7	1035423	55.51	0
7	1037547	55.61	0
7	1039671	55.71	0
7	1041796	55.81	0
7	1043920	55.91	0
7	1046055	56.01	0
7	1048180	56.11	0
7	1050304	56.21	0
7	1052428	56.31	0
7	1054553	56.41	0
7	1056677	56.51	0
7	1058801	56.61	0
7	1060926	56.71	0
7	1063050	56.81	0
7	1065174	56.91	0
7	1067310	57.01	0
7	1069434	57.11	0
7	1071558	57.21	0
7	1073683	57.31	0
7	1075807	57.41	0
7	1077931	57.51	0
7	1080056	57.61	0
7	1082180	57.71	0
7	1084304	57.81	0
7	1086429	57.91	0
7	1088564	58.01	0
7	1090688	58.11	0
7	1092813	58.21	0
7	1094937	58.31	0
7	1097061	58.41	0
7	1099186	58.51	0
7	1101310	58.61	0
7	1103434	58.71	0
7	1105559	58.81	0
7	1107683	58.91	0
7	1109818	59.01	0
7	1111943	59.11	0
7	1114067	59.21	0
7	1116191	59.31	0
7	1118316	59.41	0
7	1120440	59.51	0
7	1122564	59.61	0
7	1124689	59.71	0
7	1126813	59.81	0
7	1128937	59.91	0
7	1131073	60.01	0
7	1133197	60.11	0
7	1135321	60.21	0
7	1137446	60.31	0
7	1139570	60.41	0
7	1141694	60.51	0
7	1143819	60.61	0
7	1145943	60.71	0
7	1148067	60.81	0
7	1150192	60.91	0
7	1152327	61.01	0
7	1154451	61.11	0
7	1156576	61.21	0
7	1158700	61.31	0
7	1160824	61.41	0
7	1162949	61.51	0
7	1165073	61.61	0
7	1167197	61.71	0
7	1169322	61.81	0
7	1171446	61.91	0
7	1173581	62.01	0
7	1175706	62.11	0
7	1177830	62.21	0
7	1179954	62.31	0
7	1182079	62.41	0
7	1184203	62.51	0
7	1186327	62.61	0
7	1188452	62.71	0
7	1190576	62.81	0
7	1192700	62.91	0
7	1194836	63.01	0
7	1196960	63.11	0
7	1199084	63.21	0
7	1201209	63.31	0
7	1203333	63.41	0
7	1205457	63.51	0
7	1207582	63.61	0
7	1209706	63.71	0
7	1211830	63.81	0
7	1213955	63.91	0
7	1216090	64.01	0
7	1218214	64.11	0
7	1220339	64.21	0
7	1222463	64.31	0
7	1224587	64.41	0
7	1226712	64.51	0
7	1228836	64.61	0
7	1230960	64.71	0
7	1233085	64.81	0
7	1235209	64.91	0
7	1237344	65.01	0
7	1239469	65.11	0
7	1241593	65.21	0
7	1243717	65.31	0
7	1245842	65.41	0
7	1247966	65.51	0
7	1250090	65.61	0
7	1252215	65.71	0
7	1254339	65.81	0
7	1256463	65.91	0
7	1258599	66.01	0
7	1260723	66.11	0
7	1262847	66.21	0
7	1264972	66.31	0
7	1267096	66.41	0
7	1269220	66.51	0
7	1271345	66.61	0
7	1273469	66.71	0
7	1275593	66.81	0
7	1277718	66.91	0
7	1279853	67.01	0
7	1281977	67.11	0
7	1284102	67.21	0
7	1286226	67.31	0
7	1288350	67.41	0
7	1290475	67.51	0
7	1292599	67.61	0
7	1294723	67.71	0
7	1296848	67.81	0
7	1298972	67.91	0
7	1301107	68.01	0
7	1303232	68.11	0
7	1305356	68.21	0
7	1307480	68.31	0
7	1309605	68.41	0
7	1311729	68.51	0
7	1313853	68.61	0
7	1315978	68.71	0
7	1318102	68.81	0
7	1320226	68.91	0
7	1322362	69.01	0
7	1324486	69.11	0
7	1326610	69.21	0
7	1328735	69.31	0
7	1330859	69.41	0
7	1332983	69.51	0
7	1335108	69.61	0
7	1337232	69.71	0
7	1339356	69.81	0
7	1341481	69.91	0
7	1343616	70.01	0
7	1345740	70.11	0
7	1347865	70.21	0
7	1349989	70.31	0
7	1352113	70.41	0
7	1354238	70.51	0
7	1356362	70.61	0
7	1358486	70.71	0
7	1360611	70.81	0
7	1362735	70.91	0
7	1364870	71.01	0
7	1366995	71.11	0
7	1369119	71.21	0
7	1371243	71.31	0
7	1373368	71.41	0
7	1375492	71.51	0
7	1377616	71.61	0
7	1379741	71.71	0
7	1381865	71.81	0
7	1383989	71.91	0
7	1386125	72.01	0
7	1388249	72.11	0
7	1390373	72.21	0
7	1392498	72.31	0
7	1394622	72.41	0
7	1396746	72.51	0
7	1398871	72.61	0
7	1400995	72.71	0
7	1403119	72.81	0
7	1405244	72.91	0
7	1407379	73.01	0
7	1409503	73.11	0
7	1411628	73.21	0
7	1413752	73.31	0
7	1415876	73.41	0
7	1418001	73.51	0
7	1420125	73.61	0
7	1422249	73.71	0
7	1424374	73.81	0
7	1426498	73.91	0
7	1428633	74.01	0
7	1430758	74.11	0
7	1432882	74.21	0
7	1435006	74.31	0
7	1437131	74.41	0
7	1439255	74.51	0
7	1441379	74.61	0
7	1443504	74.71	0
7	1445628	74.81	0
7	1447752	74.91	0
7	1449888	75.01	0
7	1452012	75.11	0
7	1454136	75.21	0
7	1456261	75.31	0
7	1458385	75.41	0
7	1460509	75.51	0
7	1462634	75.61	0
7	1464758	75.71	0
7	1466882	75.81	0
7	1469007	75.91	0
7	1471142	76.01	0
7	1473266	76.11	0
7	1475391	76.21	0
7	1477515	76.31	0
7	1479639	76.41	0
7	1481764	76.51	0
7	1483888	76.61	0
7	1486012	76.71	0
7	1488137	76.81	0
7	1490261	76.91	0
7	1492396	77.01	0
7	1494521	77.11	0
7	1496645	77.21	0
7	1498769	77.31	0
7	1500894	77.41	0
7	1503018	77.51	0
7	1505142	77.61	0
7	1507267	77.71	0
7	1509391	77.81	0
7	1511515	77.91	0
7	1513651	78.01	0
7	1515775	78.11	0
7	1517899	78.21	0
7	1520024	78.31	0
7	1522148	78.41	0
7	1524272	78.51	0
7	1526397	78.61	0
7	1528521	78.71	0
7	1530645	78.81	0
7	1532770	78.91	0
7	1534905	79.01	0
7	1537029	79.11	0
7	1539154	79.21	0
7	1541278	79.31	0
7	1543402	79.41	0
7	1545527	79.51	0
7	1547651	79.61	0
7	1549775	79.71	0
7	1551900	79.81	0
7	1554024	79.91	0
7	1556159	80.01	0
7	1558284	80.11	0
7	1560408	80.21	0
7	1562532	80.31	0
7	1564657	80.41	0
7	1566781	80.51	0
7	1568905	80.61	0
7	1571030	80.71	0
7	1573154	80.81	0
7	1575278	80.91	0
7	1577414	81.01	0
7	1579538	81.11	0
7	1581662	81.21	0
7	1583787	81.31	0
7	1585911	81.41	0
7	1588035	81.51	0
7	1590160	81.61	0
7	1592284	81.71	0
7	1594408	81.81	0
7	1596533	81.91	0
7	1598668	82.01	0
7	1600792	82.11	0
7	1602917	82.21	0
7	1605041	82.31	0
7	1607165	82.41	0
7	1609290	82.51	0
7	1611414	82.61	0
7	1613538	82.71	0
7	1615663	82.81	0
7	1617787	82.91	0
7	1619922	83.01	0
7	1622047	83.11	0
7	1624171	83.21	0
7	1626295	83.31	0
7	1628420	83.41	0
7	1630544	83.51	0
7	1632668	83.61	0
7	1634793	83.71	0
7	1636917	83.81	0
7	1639041	83.91	0
7	1641177	84.01	0
7	1643301	84.11	0
7	1645425	84.21	0
7	1647550	84.31	0
7	1649674	84.41	0
7	1651798	84.51	0
7	1653923	84.61	0
7	1656047	84.71	0
7	1658171	84.81	0
7	1660296	84.91	0
7	1662431	85.01	0
7	1664555	85.11	0
7	1666680	85.21	0
7	1668804	85.31	0
7	1670928	85.41	0
7	1673053	85.51	0
7	1675177	85.61	0
7	1677301	85.71	0
7	1679426	85.81	0
7	1681550	85.91	0
7	1683685	86.01	0
7	1685810	86.11	0
7	1687934	86.21	0
7	1690058	86.31	0
7	1692183	86.41	0
7	1694307	86.51	0
7	1696431	86.61	0
7	1698556	86.71	0
7	1700680	86.81	0
7	1702804	86.91	0
7	1704940	87.01	0
7	1707064	87.11	0
7	1709188	87.21	0
7	1711313	87.31	0
7	1713437	87.41	0
7	1715561	87.51	0
7	1717686	87.61	0
7	1719810	87.71	0
7	1721934	87.81	0
7	1724059	87.91	0
7	1726194	88.01	0
7	1728318	88.11	0
7	1730443	88.21	0
7	1732567	88.31	0
7	1734691	88.41	0
7	1736816	88.51	0
7	1738940	88.61	0
7	1741064	88.71	0
7	1743189	88.81	0
7	1745313	88.91	0
7	1747448	89.01	0
7	1749573	89.11	0
7	1751697	89.21	0
7	1753821	89.31	0
7	1755946	89.41	0
7	1758070	89.51	0
7	1760194	89.61	0
7	1762319	89.71	0
7	1764443	89.81	0
7	1766567	89.91	0
7	1768703	90.01	0
7	1770827	90.11	0
7	1772951	90.21	0
7	1775076	90.31	0
7	1777200	90.41	0
7	1779324	90.51	0
7	1781449	90.61	0
7	1783573	90.71	0
7	1785697	90.81	0
7	1787822	90.91	0
7	1789957	91.01	0
7	1792081	91.11	0
7	1794206	91.21	0
7	1796330	91.31	0
7	1798454	91.41	0
7	1800579	91.51	0
7	1802703	91.61	0
7	1804827	91.71	0
7	1806952	91.81	0
7	1809076	91.91	0
7	1811211	92.01	0
7	1813336	92.11	0
7	1815460	92.21	0
7	1817584	92.31	0
7	1819709	92.41	0
7	1821833	92.51	0
7	1823957	92.61	0
7	1826082	92.71	0
7	1828206	92.81	0
7	1830330	92.91	0
7	1832466	93.01	0
7	1834590	93.11	0
7	1836714	93.21	0
7	1838839	93.31	0
7	1840963	93.41	0
7	1843087	93.51	0
7	1845212	93.61	0
7	1847336	93.71	0
7	1849460	93.81	0
7	1851585	93.91	0
7	1853720	94.01	0
7	1855844	94.11	0
7	1857969	94.21	0
7	1860093	94.31	0
7	1862217	94.41	0
7	1864342	94.51	0
7	1866466	94.61	0
7	1868590	94.71	0
7	1870715	94.81	0
7	1872839	94.91	0
7	1874974	95.01	0
7	1877099	95.11	0
7	1879223	95.21	0
7	1881347	95.31	0
7	1883472	95.41	0
7	1885596	95.51	0
7	1887720	95.61	0
7	1889845	95.71	0
7	1891969	95.81	0
7	1894093	95.91	0
7	1896229	96.01	0
7	1898353	96.11	0
7	1900477	96.21	0
7	1902602	96.31	0
7	1904726	96.41	0
7	1906850	96.51	0
7	1908975	96.61	0
7	1911099	96.71	0
7	1913223	96.81	0
7	1915348	96.91	0
7	1917483	97.01	0
7	1919607	97.11	0
7	1921732	97.21	0
7	1923856	97.31	0
7	1925980	97.41	0
7	1928105	97.51	0
7	1930229	97.61	0
7	1932353	97.71	0
7	1934478	97.81	0
7	1936602	97.91	0
7	1938737	98.01	0
7	1940862	98.11	0
7	1942986	98.21	0
7	1945110	98.31	0
7	1947235	98.41	0
7	1949359	98.51	0
7	1951483	98.61	0
7	1953608	98.71	0
7	1955732	98.81	0
7	1957856	98.91	0
7	1959992	99.01	0
7	1962116	99.11	0
7	1964240	99.21	0
7	1966365	99.31	0
7	1968489	99.41	0
7	1970613	99.51	0
7	1972738	99.61	0
7	1974862	99.71	0
7	1976986	99.81	0
7	1979111	99.91	0
7	1981246	100.01	0
7	1983370	100.11	0
7	1985495	100.21	0
7	1987619	100.31	0
7	1989743	100.41	0
7	1991868	100.51	0
7	1993992	100.61	0
7	1996116	100.71	0
7	1998241	100.81	0
7	2000365	100.91	0
7	2002500	101.01	0
7	2004625	101.11	0
7	2006749	101.21	0
7	2008873	101.31	0
7	2010998	101.41	0
7	2013122	101.51	0
7	2015246	101.61	0
7	2017371	101.71	0
7	2019495	101.81	0
7	2021619	101.91	0
7	2023755	102.01	0
7	2025879	102.11	0
7	2028003	102.21	0
7	2030128	102.31	0
7	2032252	102.41	0
7	2034376	102.51	0
7	2036501	102.61	0
7	2038625	102.71	0
7	2040749	102.81	0
7	2042874	102.91	0
7	2045009	103.01	0
7	2047133	103.11	0
7	2049258	103.21	0
7	2051382	103.31	0
7	2053506	103.41	0
7	2055631	103.51	0
7	2057755	103.61	0
7	2059879	103.71	0
7	2062004	103.81	0
7	2064128	103.91	0
7	2066263	104.01	0
7	2068388	104.11	0
7	2070512	104.21	0
7	2072636	104.31	0
7	2074761	104.41	0
7	2076885	104.51	0
7	2079009	104.61	0
7	2081134	104.71	0
7	2083258	104.81	0
7	2085382	104.91	0
7	2087518	105.01	0
7	2089642	105.11	0
7	2091766	105.21	0
7	2093891	105.31	0
7	2096015	105.41	0
7	2098139	105.51	0
7	2100264	105.61	0
7	2102388	105.71	0
7	2104512	105.81	0
7	2106637	105.91	0
7	2108772	106.01	0
7	2110896	106.11	0
7	2113021	106.21	0
7	2115145	106.31	0
7	2117269	106.41	0
7	2119394	106.51	0
7	2121518	106.61	0
7	2123642	106.71	0
7	2125767	106.81	0
7	2127891	106.91	0
7	2130026	107.01	0
7	2132151	107.11	0
7	2134275	107.21	0
7	2136399	107.31	0
7	2138524	107.41	0
7	2140648	107.51	0
7	2142772	107.61	0
7	2144897	107.71	0
7	2147021	107.81	0
7	2149145	107.91	0
7	2151281	108.01	0
7	2153405	108.11	0
7	2155529	108.21	0
7	2157654	108.31	0
7	2159778	108.41	0
7	2161902	108.51	0
7	2164027	108.61	0
7	2166151	108.71	0
7	2168275	108.81	0
7	2170400	108.91	0
7	2172535	109.01	0
7	2174659	109.11	0
7	2176784	109.21	0
7	2178908	109.31	0
7	2181032	109.41	0
7	2183157	109.51	0
7	2185281	109.61	0
7	2187405	109.71	0
7	2189530	109.81	0
7	2191654	109.91	0
7	2193789	110.01	0
7	2195914	110.11	0
7	2198038	110.21	0
7	2200162	110.31	0
7	2202287	110.41	0
7	2204411	110.51	0
7	2206535	110.61	0
7	2208660	110.71	0
7	2210784	110.81	0
7	2212908	110.91	0
7	2215044	111.01	0
7	2217168	111.11	0
7	2219292	111.21	0
7	2221417	111.31	0
7	2223541	111.41	0
7	2225665	111.51	0
7	2227790	111.61	0
7	2229914	111.71	0
7	2232038	111.81	0
7	2234163	111.91	0
7	2236298	112.01	0
7	2238422	112.11	0
7	2240547	112.21	0
7	2242671	112.31	0
7	2244795	112.41	0
7	2246920	112.51	0
7	2249044	112.61	0
7	2251168	112.71	0
7	2253293	112.81	0
7	2255417	112.91	0
7	2257552	113.01	0
7	2259677	113.11	0
7	2261801	113.21	0
7	2263925	113.31	0
7	2266050	113.41	0
7	2268174	113.51	0
7	2270298	113.61	0
7	2272423	113.71	0
7	2274547	113.81	0
7	2276671	113.91	0
7	2278807	114.01	0
7	2280931	114.11	0
7	2283055	114.21	0
7	2285180	114.31	0
7	2287304	114.41	0
7	2289428	114.51	0
7	2291553	114.61	0
7	2293677	114.71	0
7	2295801	114.81	0
7	2297926	114.91	0
7	2300061	115.01	0
7	2302185	115.11	0
7	2304310	115.21	0
7	2306434	115.31	0
7	2308558	115.41	0
7	2310683	115.51	0
7	2312807	115.61	0
7	2314931	115.71	0
7	2317056	115.81	0
7	2319180	115.91	0
7	2321315	116.01	0
7	2323440	116.11	0
7	2325564	116.21	0
7	2327688	116.31	0
7	2329813	116.41	0
7	2331937	116.51	0
7	2334061	116.61	0
7	2336186	116.71	0
7	2338310	116.81	0
7	2340434	116.91	0
7	2342570	117.01	0
7	2344694	117.11	0
7	2346818	117.21	0
7	2348943	117.31	0
7	2351067	117.41	0
7	2353191	117.51	0
7	2355316	117.61	0
7	2357440	117.71	0
7	2359564	117.81	0
7	2361689	117.91	0
7	2363824	118.01	0
7	2365948	118.11	0
7	2368073	118.21	0
7	2370197	118.31	0
7	2372321	118.41	0
7	2374446	118.51	0
7	2376570	118.61	0
7	2378694	118.71	0
7	2380819	118.81	0
7	2382943	118.91	0
7	2385078	119.01	0
7	2387203	119.11	0
7	2389327	119.21	0
7	2391451	119.31	0
7	2393576	119.41	0
7	2395700	119.51	0
7	2397824	119.61	0
7	2399949	119.71	0
7	2402073	119.81	0
7	2404197	119.91	0
6	632	1.11	242.45
6	1192	1.21	242.45
6	1752	1.31	242.45
6	2312	1.41	242.45
6	2873	1.51	242.45
6	3433	1.61	242.45
6	3993	1.71	242.45
6	4554	1.81	242.45
6	5114	1.91	242.45
6	5680	2.01	242.45
6	6240	2.11	242.45
6	6800	2.21	242.45
6	7360	2.31	242.45
6	7920	2.41	242.45
6	8480	2.51	242.45
6	9040	2.61	242.45
6	9600	2.71	242.45
6	10160	2.81	242.45
6	10720	2.91	242.45
6	11285	3.01	242.45
6	11979	3.11	242.45
6	12714	3.21	242.45
6	13449	3.31	242.45
6	14184	3.41	242.45
6	14919	3.51	242.45
6	15654	3.61	242.45
6	16389	3.71	242.45
6	17125	3.81	242.45
6	17860	3.91	242.45
6	18600	4.01	242.45
6	19335	4.11	242.45
6	20070	4.21	242.45
6	20805	4.31	242.45
6	21540	4.41	242.45
6	22275	4.51	242.45
6	23010	4.61	242.45
6	23745	4.71	242.45
6	24480	4.81	242.45
6	25215	4.91	242.45
6	25956	5.01	242.45
6	26833	5.11	242.45
6	27759	5.21	242.45
6	28685	5.31	242.45
6	29611	5.41	242.45
6	30538	5.51	242.45
6	31464	5.61	242.45
6	32390	5.71	242.45
6	33316	5.81	242.45
6	34242	5.91	242.45
6	35174	6.01	242.45
6	36100	6.11	242.45
6	37026	6.21	242.45
6	37952	6.31	242.45
6	38878	6.41	242.45
6	39804	6.51	242.45
6	40730	6.61	242.45
6	41656	6.71	242.45
6	42582	6.81	242.45
6	43508	6.91	242.45
6	44441	7.01	242.45
6	45518	7.11	242.45
6	46651	7.21	242.45
6	47784	7.31	242.45
6	48917	7.41	242.45
6	50050	7.51	242.45
6	51183	7.61	242.45
6	52316	7.71	242.45
6	53449	7.81	242.45
6	54582	7.91	242.45
6	55722	8.01	242.45
6	56855	8.11	242.45
6	57988	8.21	242.45
6	59121	8.31	242.45
6	60254	8.41	242.45
6	61387	8.51	242.45
6	62520	8.61	242.45
6	63653	8.71	242.45
6	64786	8.81	242.45
6	65919	8.91	242.45
6	67059	9.01	242.45
6	68192	9.11	242.45
6	69325	9.21	242.45
6	70458	9.31	242.45
6	71591	9.41	242.45
6	72724	9.51	242.45
6	73857	9.61	242.45
6	74990	9.71	242.45
6	76123	9.81	242.45
6	77256	9.91	242.45
6	78396	10.01	242.45
6	79529	10.11	242.45
6	80662	10.21	242.45
6	81795	10.31	242.45
6	82928	10.41	242.45
6	84061	10.51	242.45
6	85194	10.61	242.45
6	86327	10.71	242.45
6	87460	10.81	242.45
6	88593	10.91	242.45
6	89734	11.01	242.45
6	91500	11.11	242.45
6	93622	11.21	242.45
6	95743	11.31	242.45
6	97864	11.41	242.45
6	99986	11.51	242.45
6	102107	11.61	242.45
6	104228	11.71	242.45
6	106349	11.81	242.45
6	108470	11.91	242.45
6	110603	12.01	242.45
6	112724	12.11	242.45
6	114845	12.21	242.45
6	116966	12.31	242.45
6	119087	12.41	242.45
6	121208	12.51	242.45
6	123329	12.61	242.45
6	125450	12.71	242.45
6	127571	12.81	242.45
6	129692	12.91	242.45
6	131824	13.01	242.45
6	133945	13.11	242.45
6	136066	13.21	242.45
6	138187	13.31	242.45
6	140308	13.41	242.45
6	142429	13.51	242.45
6	144550	13.61	242.45
6	146671	13.71	242.45
6	148792	13.81	242.45
6	150913	13.91	242.45
6	153045	14.01	242.45
6	155166	14.11	242.45
6	157287	14.21	242.45
6	159408	14.31	242.45
6	161529	14.41	242.45
6	163650	14.51	242.45
6	165771	14.61	242.45
6	167892	14.71	242.45
6	170013	14.81	242.45
6	172134	14.91	242.45
6	174266	15.01	242.45
6	176387	15.11	242.45
6	178508	15.21	242.45
6	180629	15.31	242.45
6	182750	15.41	242.45
6	184871	15.51	242.45
6	186992	15.61	242.45
6	189113	15.71	242.45
6	191234	15.81	242.45
6	193355	15.91	242.45
6	195487	16.01	242.45
6	197608	16.11	242.45
6	199729	16.21	242.45
6	201850	16.31	242.45
6	203971	16.41	242.45
6	206092	16.51	242.45
6	208213	16.61	242.45
6	210334	16.71	242.45
6	212455	16.81	242.45
6	214576	16.91	242.45
6	216708	17.01	242.45
6	218829	17.11	242.45
6	220950	17.21	242.45
6	223071	17.31	242.45
6	225192	17.41	242.45
6	227313	17.51	242.45
6	229434	17.61	242.45
6	231555	17.71	242.45
6	233676	17.81	242.45
6	235797	17.91	242.45
6	237929	18.01	242.45
6	240050	18.11	242.45
6	242171	18.21	242.45
6	244292	18.31	242.45
6	246413	18.41	242.45
6	248534	18.51	242.45
6	250655	18.61	242.45
6	252776	18.71	242.45
6	254897	18.81	242.45
6	257018	18.91	242.45
6	259150	19.01	242.45
6	261271	19.11	242.45
6	263392	19.21	242.45
6	265513	19.31	242.45
6	267634	19.41	242.45
6	269755	19.51	242.45
6	271876	19.61	242.45
6	273997	19.71	242.45
6	276118	19.81	242.45
6	278239	19.91	242.45
6	280371	20.01	242.45
6	282492	20.11	242.45
6	284613	20.21	242.45
6	286734	20.31	242.45
6	288855	20.41	242.45
6	290976	20.51	242.45
6	293097	20.61	242.45
6	295218	20.71	242.45
6	297339	20.81	242.45
6	299460	20.91	242.45
6	301592	21.01	242.45
6	303713	21.11	242.45
6	305834	21.21	242.45
6	307955	21.31	242.45
6	310076	21.41	242.45
6	312197	21.51	242.45
6	314318	21.61	242.45
6	316439	21.71	242.45
6	318560	21.81	242.45
6	320681	21.91	242.45
6	322813	22.01	242.45
6	324934	22.11	242.45
6	327055	22.21	242.45
6	329176	22.31	242.45
6	331297	22.41	242.45
6	333418	22.51	242.45
6	335539	22.61	242.45
6	337660	22.71	242.45
6	339781	22.81	242.45
6	341902	22.91	242.45
6	344034	23.01	242.45
6	346155	23.11	242.45
6	348276	23.21	242.45
6	350397	23.31	242.45
6	352518	23.41	242.45
6	354639	23.51	242.45
6	356760	23.61	242.45
6	358881	23.71	242.45
6	361002	23.81	242.45
6	363123	23.91	242.45
6	365255	24.01	242.45
6	367376	24.11	242.45
6	369497	24.21	242.45
6	371618	24.31	242.45
6	373739	24.41	242.45
6	375860	24.51	242.45
6	377981	24.61	242.45
6	380102	24.71	242.45
6	382223	24.81	242.45
6	384344	24.91	242.45
6	386477	25.01	242.45
6	389295	25.11	242.45
6	391420	25.21	242.45
6	393544	25.31	242.45
6	395668	25.41	242.45
6	397793	25.51	242.45
6	399917	25.61	242.45
6	402041	25.71	242.45
6	404166	25.81	242.45
6	406290	25.91	242.45
6	408425	26.01	242.45
6	410550	26.11	242.45
6	412674	26.21	242.45
6	414798	26.31	242.45
6	416923	26.41	242.45
6	419047	26.51	242.45
6	421171	26.61	242.45
6	423296	26.71	242.45
6	425420	26.81	242.45
6	427544	26.91	242.45
6	429680	27.01	242.45
6	431804	27.11	242.45
6	433928	27.21	242.45
6	436053	27.31	242.45
6	438177	27.41	242.45
6	440301	27.51	242.45
6	442426	27.61	242.45
6	444550	27.71	242.45
6	446674	27.81	242.45
6	448799	27.91	242.45
6	450934	28.01	242.45
6	453058	28.11	242.45
6	455183	28.21	242.45
6	457307	28.31	242.45
6	459431	28.41	242.45
6	461556	28.51	242.45
6	463680	28.61	242.45
6	465804	28.71	242.45
6	467929	28.81	242.45
6	470053	28.91	242.45
6	472188	29.01	242.45
6	474313	29.11	242.45
6	476437	29.21	242.45
6	478561	29.31	242.45
6	480686	29.41	242.45
6	482810	29.51	242.45
6	484934	29.61	242.45
6	487059	29.71	242.45
6	489183	29.81	242.45
6	491307	29.91	242.45
6	493443	30.01	242.45
6	495567	30.11	242.45
6	497691	30.21	242.45
6	499816	30.31	242.45
6	501940	30.41	242.45
6	504064	30.51	242.45
6	506189	30.61	242.45
6	508313	30.71	242.45
6	510437	30.81	242.45
6	512562	30.91	242.45
6	514697	31.01	242.45
6	516821	31.11	242.45
6	518946	31.21	242.45
6	521070	31.31	242.45
6	523194	31.41	242.45
6	525319	31.51	242.45
6	527443	31.61	242.45
6	529567	31.71	242.45
6	531692	31.81	242.45
6	533816	31.91	242.45
6	535951	32.01	242.45
6	538076	32.11	242.45
6	540200	32.21	242.45
6	542324	32.31	242.45
6	544449	32.41	242.45
6	546573	32.51	242.45
6	548697	32.61	242.45
6	550822	32.71	242.45
6	552946	32.81	242.45
6	555070	32.91	242.45
6	557206	33.01	242.45
6	559330	33.11	242.45
6	561454	33.21	242.45
6	563579	33.31	242.45
6	565703	33.41	242.45
6	567827	33.51	242.45
6	569952	33.61	242.45
6	572076	33.71	242.45
6	574200	33.81	242.45
6	576325	33.91	242.45
6	578460	34.01	242.45
6	580584	34.11	242.45
6	582709	34.21	242.45
6	584833	34.31	242.45
6	586957	34.41	242.45
6	589082	34.51	242.45
6	591206	34.61	242.45
6	593330	34.71	242.45
6	595455	34.81	242.45
6	597579	34.91	242.45
6	599714	35.01	242.45
6	601839	35.11	242.45
6	603963	35.21	242.45
6	606087	35.31	242.45
6	608212	35.41	242.45
6	610336	35.51	242.45
6	612460	35.61	242.45
6	614585	35.71	242.45
6	616709	35.81	242.45
6	618833	35.91	242.45
6	620969	36.01	242.45
6	623093	36.11	242.45
6	625217	36.21	242.45
6	627342	36.31	242.45
6	629466	36.41	242.45
6	631590	36.51	242.45
6	633715	36.61	242.45
6	635839	36.71	242.45
6	637963	36.81	242.45
6	640088	36.91	242.45
6	642223	37.01	242.45
6	644347	37.11	242.45
6	646472	37.21	242.45
6	648596	37.31	242.45
6	650720	37.41	242.45
6	652845	37.51	242.45
6	654969	37.61	242.45
6	657093	37.71	242.45
6	659218	37.81	242.45
6	661342	37.91	242.45
6	663477	38.01	242.45
6	665602	38.11	242.45
6	667726	38.21	242.45
6	669850	38.31	242.45
6	671975	38.41	242.45
6	674099	38.51	242.45
6	676223	38.61	242.45
6	678348	38.71	242.45
6	680472	38.81	242.45
6	682596	38.91	242.45
6	684732	39.01	242.45
6	686856	39.11	242.45
6	688980	39.21	242.45
6	691105	39.31	242.45
6	693229	39.41	242.45
6	695353	39.51	242.45
6	697478	39.61	242.45
6	699602	39.71	242.45
6	701726	39.81	242.45
6	703851	39.91	242.45
6	705986	40.01	242.45
6	708110	40.11	242.45
6	710235	40.21	242.45
6	712359	40.31	242.45
6	714483	40.41	242.45
6	716608	40.51	242.45
6	718732	40.61	242.45
6	720856	40.71	242.45
6	722981	40.81	242.45
6	725105	40.91	242.45
6	727240	41.01	242.45
6	729365	41.11	242.45
6	731489	41.21	242.45
6	733613	41.31	242.45
6	735738	41.41	242.45
6	737862	41.51	242.45
6	739986	41.61	242.45
6	742111	41.71	242.45
6	744235	41.81	242.45
6	746359	41.91	242.45
6	748495	42.01	242.45
6	750619	42.11	242.45
6	752743	42.21	242.45
6	754868	42.31	242.45
6	756992	42.41	242.45
6	759116	42.51	242.45
6	761241	42.61	242.45
6	763365	42.71	242.45
6	765489	42.81	242.45
6	767614	42.91	242.45
6	769749	43.01	242.45
6	771873	43.11	242.45
6	773998	43.21	242.45
6	776122	43.31	242.45
6	778246	43.41	242.45
6	780371	43.51	242.45
6	782495	43.61	242.45
6	784619	43.71	242.45
6	786744	43.81	242.45
6	788868	43.91	242.45
6	791003	44.01	242.45
6	793128	44.11	242.45
6	795252	44.21	242.45
6	797376	44.31	242.45
6	799501	44.41	242.45
6	801625	44.51	242.45
6	803749	44.61	242.45
6	805874	44.71	242.45
6	807998	44.81	242.45
6	810122	44.91	242.45
6	812258	45.01	242.45
6	814382	45.11	242.45
6	816506	45.21	242.45
6	818631	45.31	242.45
6	820755	45.41	242.45
6	822879	45.51	242.45
6	825004	45.61	242.45
6	827128	45.71	242.45
6	829252	45.81	242.45
6	831377	45.91	242.45
6	833512	46.01	242.45
6	835636	46.11	242.45
6	837761	46.21	242.45
6	839885	46.31	242.45
6	842009	46.41	242.45
6	844134	46.51	242.45
6	846258	46.61	242.45
6	848382	46.71	242.45
6	850507	46.81	242.45
6	852631	46.91	242.45
6	854766	47.01	242.45
6	856891	47.11	242.45
6	859015	47.21	242.45
6	861139	47.31	242.45
6	863264	47.41	242.45
6	865388	47.51	242.45
6	867512	47.61	242.45
6	869637	47.71	242.45
6	871761	47.81	242.45
6	873885	47.91	242.45
6	876021	48.01	242.45
6	878145	48.11	242.45
6	880269	48.21	242.45
6	882394	48.31	242.45
6	884518	48.41	242.45
6	886642	48.51	242.45
6	888767	48.61	242.45
6	890891	48.71	242.45
6	893015	48.81	242.45
6	895140	48.91	242.45
6	897275	49.01	242.45
6	899399	49.11	242.45
6	901524	49.21	242.45
6	903648	49.31	242.45
6	905772	49.41	242.45
6	907897	49.51	242.45
6	910021	49.61	242.45
6	912145	49.71	242.45
6	914270	49.81	242.45
6	916394	49.91	242.45
6	918529	50.01	242.45
6	920654	50.11	242.45
6	922778	50.21	242.45
6	924902	50.31	242.45
6	927027	50.41	242.45
6	929151	50.51	242.45
6	931275	50.61	242.45
6	933400	50.71	242.45
6	935524	50.81	242.45
6	937648	50.91	242.45
6	939784	51.01	242.45
6	941908	51.11	242.45
6	944032	51.21	242.45
6	946157	51.31	242.45
6	948281	51.41	242.45
6	950405	51.51	242.45
6	952530	51.61	242.45
6	954654	51.71	242.45
6	956778	51.81	242.45
6	958903	51.91	242.45
6	961038	52.01	242.45
6	963162	52.11	242.45
6	965287	52.21	242.45
6	967411	52.31	242.45
6	969535	52.41	242.45
6	971660	52.51	242.45
6	973784	52.61	242.45
6	975908	52.71	242.45
6	978033	52.81	242.45
6	980157	52.91	242.45
6	982292	53.01	242.45
6	984417	53.11	242.45
6	986541	53.21	242.45
6	988665	53.31	242.45
6	990790	53.41	242.45
6	992914	53.51	242.45
6	995038	53.61	242.45
6	997163	53.71	242.45
6	999287	53.81	242.45
6	1001411	53.91	242.45
6	1003547	54.01	242.45
6	1005671	54.11	242.45
6	1007795	54.21	242.45
6	1009920	54.31	242.45
6	1012044	54.41	242.45
6	1014168	54.51	242.45
6	1016293	54.61	242.45
6	1018417	54.71	242.45
6	1020541	54.81	242.45
6	1022666	54.91	242.45
6	1024801	55.01	242.45
6	1026925	55.11	242.45
6	1029050	55.21	242.45
6	1031174	55.31	242.45
6	1033298	55.41	242.45
6	1035423	55.51	242.45
6	1037547	55.61	242.45
6	1039671	55.71	242.45
6	1041796	55.81	242.45
6	1043920	55.91	242.45
6	1046055	56.01	242.45
6	1048180	56.11	242.45
6	1050304	56.21	242.45
6	1052428	56.31	242.45
6	1054553	56.41	242.45
6	1056677	56.51	242.45
6	1058801	56.61	242.45
6	1060926	56.71	242.45
6	1063050	56.81	242.45
6	1065174	56.91	242.45
6	1067310	57.01	242.45
6	1069434	57.11	242.45
6	1071558	57.21	242.45
6	1073683	57.31	242.45
6	1075807	57.41	242.45
6	1077931	57.51	242.45
6	1080056	57.61	242.45
6	1082180	57.71	242.45
6	1084304	57.81	242.45
6	1086429	57.91	242.45
6	1088564	58.01	242.45
6	1090688	58.11	242.45
6	1092813	58.21	242.45
6	1094937	58.31	242.45
6	1097061	58.41	242.45
6	1099186	58.51	242.45
6	1101310	58.61	242.45
6	1103434	58.71	242.45
6	1105559	58.81	242.45
6	1107683	58.91	242.45
6	1109818	59.01	242.45
6	1111943	59.11	242.45
6	1114067	59.21	242.45
6	1116191	59.31	242.45
6	1118316	59.41	242.45
6	1120440	59.51	242.45
6	1122564	59.61	242.45
6	1124689	59.71	242.45
6	1126813	59.81	242.45
6	1128937	59.91	242.45
6	1131073	60.01	242.45
6	1133197	60.11	242.45
6	1135321	60.21	242.45
[...]
242	1438281	74.455440051668	9
242	1440406	74.555305838865	9
242	1442530	74.655314626059	9
242	1444654	74.75540141325	9
242	1446779	74.855319200438	9
242	1448903	74.955353987623	9
242	1451038	75.055271774805	9
242	1453163	75.155371561984	9
242	1455287	75.255445349161	9
242	1457411	75.355415136335	9
242	1459536	75.455241923507	9
242	1461660	75.555354710675	9
242	1463784	75.655428497841	9
242	1465909	75.755307285002	9
242	1468033	75.855394072162	9
242	1470157	75.955246859318	9
242	1472293	76.055398646472	9
242	1474417	76.155368433623	9
242	1476541	76.25528622077	9
242	1478666	76.355373007915	9
242	1480790	76.455407795057	9
242	1482914	76.555247582196	9
242	1485039	76.655399369333	9
242	1487163	76.755265156466	9
242	1489287	76.855364943596	9
242	1491412	76.955373730725	9
242	1493547	77.055304517849	9
242	1495671	77.155443304971	9
242	1497796	77.255335092089	9
242	1499920	77.355278879206	9
242	1502044	77.455404666319	9
242	1504169	77.555257453429	9
242	1506293	77.655292240537	9
242	1508417	77.75528802764	9
242	1510542	77.855400814741	9
242	1512666	77.955409601839	9
242	1514801	78.055444388935	9
242	1516926	78.155401176028	9
242	1519050	78.255292963118	9
242	1521174	78.355249750205	9
242	1523299	78.45536253729	9
242	1525423	78.555436324371	9
242	1527547	78.655367111449	9
242	1529672	78.755336898524	9
242	1531796	78.855410685597	9
242	1533920	78.955354472666	9
242	1536056	79.055324259733	9
242	1538180	79.155268046797	9
242	1540304	79.255250833857	9
242	1542429	79.355441620915	9
242	1544553	79.45534640797	9
242	1546677	79.555355195022	9
242	1548802	79.655259982071	9
242	1550926	79.755281769117	9
242	1553050	79.85535555616	9
242	1555175	79.9552863432	9
242	1557310	80.055243130237	9
242	1559434	80.155420917272	9
242	1561559	80.255312704303	9
242	1563683	80.355308491332	9
242	1565807	80.455421278357	9
242	1567932	80.555261065381	9
242	1570056	80.655308852401	9
242	1572180	80.755382639418	9
242	1574305	80.855248426433	9
242	1576429	80.955257213444	9
242	1578564	81.055448000452	9
242	1580689	81.155404787457	9
242	1582813	81.25537457446	9
242	1584937	81.355344361459	9
242	1587062	81.455249148455	9
242	1589186	81.555413935449	9
242	1591310	81.655292722441	9
242	1593435	81.755301509428	9
242	1595559	81.855323296413	9
242	1597683	81.955423083394	9
242	1599819	82.055327870373	9
242	1601943	82.155336657349	9
242	1604067	82.255319444323	9
242	1606192	82.355289231293	9
242	1608316	82.455376018261	9
242	1610440	82.555319805226	9
242	1612565	82.655263592187	9
242	1614689	82.755402379146	9
242	1616813	82.855281166102	9
242	1618938	82.955328953055	9
242	1621073	83.055259740005	9
242	1623197	83.155255526953	9
242	1625322	83.255446313896	9
242	1627446	83.355429100838	9
242	1629570	83.455398887776	9
242	1631695	83.555381674712	9
242	1633819	83.655312461643	9
242	1635943	83.755321248573	9
242	1638068	83.8553170355	9
242	1640192	83.955247822424	9
242	1642327	84.055438609345	9
242	1644452	84.155265396263	9
242	1646576	84.255352183178	9
242	1648700	84.35525697009	9
242	1650825	84.455408756999	9
242	1652949	84.555339543905	9
242	1655073	84.655361330809	9
242	1657198	84.755383117709	9
242	1659322	84.855339904607	9
242	1661446	84.955400691501	9
242	1663582	85.055383478393	9
242	1665706	85.155431265281	9
242	1667830	85.255323052167	9
242	1669955	85.35533183905	9
242	1672079	85.45528862593	9
242	1674203	85.555297412807	9
242	1676328	85.65533219968	9
242	1678452	85.755444986551	9
242	1680576	85.855414773419	9
242	1682701	85.955319560284	9
242	1684836	86.055445347146	9
242	1686960	86.155285134006	9
242	1689085	86.255423920862	9
242	1691209	86.355263707716	9
242	1693333	86.455415494567	9
242	1695458	86.555372281415	9
242	1697582	86.655316068259	9
242	1699706	86.755259855101	9
242	1701831	86.85543764194	9
242	1703955	86.955264428776	9
242	1706090	87.05529921561	9
242	1708215	87.155295002439	9
242	1710339	87.255290789266	9
242	1712463	87.35541657609	9
242	1714588	87.455321362911	9
242	1716712	87.555382149729	9
242	1718836	87.655416936544	9
242	1720961	87.755308723357	9
242	1723085	87.855421510168	9
242	1725209	87.955391296974	9
242	1727345	88.055309083778	9
242	1729469	88.155265870578	9
242	1731593	88.255274657376	9
242	1733718	88.355439444171	9
242	1735842	88.455383230964	9
242	1737966	88.555340017753	9
242	1740091	88.655426804539	9
242	1742215	88.755435591322	9
242	1744339	88.855392378103	9
242	1746464	88.95542716488	9
242	1748599	89.055370951654	9
242	1750723	89.155314738426	9
242	1752848	89.255258525194	9
242	1754972	89.35543631196	9
242	1757096	89.455276098722	9
242	1759221	89.555414885483	9
242	1761345	89.65543667224	9
242	1763469	89.755445458994	9
242	1765594	89.855428245744	9
242	1767718	89.955255032492	9
242	1769853	90.055380819237	9
242	1771978	90.155324605978	9
242	1774102	90.255398392717	9
242	1776226	90.355368179453	9
242	1778351	90.455337966187	9
242	1780475	90.555307752918	9
242	1782599	90.655316539646	9
242	1784724	90.75540332637	9
242	1786848	90.855321113092	9
242	1788972	90.95526489981	9
242	1791108	91.055247686527	9
242	1793232	91.155243473239	9
242	1795356	91.255382259949	9
242	1797481	91.355352046656	9
242	1799605	91.45533483336	9
242	1801729	91.555291620061	9
242	1803854	91.655417406759	9
242	1805978	91.755296193454	9
242	1808102	91.855408980147	9
242	1810227	91.955326766836	9
242	1812362	92.055439553523	9
242	1814486	92.155344340206	9
242	1816611	92.255327126887	9
242	1818735	92.355374913565	9
242	1820859	92.455448700239	9
242	1822984	92.555366486912	9
242	1825108	92.65525827358	9
242	1827232	92.755423060246	9
242	1829357	92.855392846909	9
242	1831481	92.955310633569	9
242	1833616	93.055241420226	9
242	1835741	93.15543220688	9
242	1837865	93.255271993532	9
242	1839989	93.355436780181	9
242	1842114	93.455367566826	9
242	1844238	93.555402353468	9
242	1846362	93.655385140108	9
242	1848487	93.755406926745	9
242	1850611	93.855363713379	9
242	1852735	93.95524250001	9
242	1854871	94.055290286639	9
242	1856995	94.155351073263	9
242	1859119	94.255398859885	9
242	1861244	94.355368646503	9
242	1863368	94.455260433119	9
242	1865492	94.555347219732	9
242	1867617	94.655395006341	9
242	1869741	94.755442792948	9
242	1871865	94.855269579552	9
242	1873990	94.955304366153	9
242	1876125	95.055417152752	9
242	1878249	95.155438939348	9
242	1880374	95.255265725941	9
242	1882498	95.355430512531	9
242	1884622	95.455426299118	9
242	1886747	95.555448085702	9
242	1888871	95.655261872282	9
242	1890995	95.75542665886	9
242	1893120	95.855370445435	9
242	1895244	95.955288232008	9
242	1897379	96.055271018577	9
242	1899504	96.155253805143	9
242	1901628	96.255327591706	9
242	1903752	96.355414378267	9
242	1905877	96.455371164825	9
242	1908001	96.555262951379	9
242	1910125	96.65538873793	9
242	1912250	96.755423524479	9
242	1914374	96.855406311025	9
242	1916498	96.955259097567	9
242	1918634	97.055345884108	9
242	1920758	97.155354670645	9
242	1922882	97.255441457179	9
242	1925007	97.35524224371	9
242	1927131	97.455251030239	9
242	1929255	97.555350816763	9
242	1931380	97.655255603286	9
242	1933504	97.755316389805	9
242	1935628	97.855364176321	9
242	1937753	97.955372962835	9
242	1939888	98.055251749344	9
242	1942012	98.155429535852	9
242	1944137	98.255321322356	9
242	1946261	98.355356108858	9
242	1948385	98.455312895357	9
242	1950510	98.555438681854	9
242	1952634	98.655252468347	9
242	1954758	98.755378254837	9
242	1956883	98.855257041324	9
242	1959007	98.955447827808	9
242	1961142	99.055430614289	9
242	1963267	99.155361400767	9
242	1965391	99.255279187243	9
242	1967515	99.355274973715	9
242	1969640	99.455296760185	9
242	1971764	99.555448546651	9
242	1973888	99.655405333115	9
242	1976013	99.755427119576	9
242	1978137	99.855422906033	9
242	1980261	99.955275692488	9
242	1982397	100.05534947894	9
242	1984521	100.155358265389	9
242	1986645	100.255341051835	9
242	1988770	100.355375838278	9
242	1990894	100.455241624719	9
242	1993018	100.555250411155	9
242	1995143	100.65538919759	9
242	1997267	100.755280984022	9
242	1999391	100.85539377045	9
242	2001516	100.955363556876	9
242	2003651	101.055255343297	9
242	2005775	101.155303129717	9
242	2007900	101.255298916134	9
242	2010024	101.355398702547	9
242	2012148	101.455368488958	9
242	2014273	101.555286275366	9
242	2016397	101.65539906177	9
242	2018521	101.755277848173	9
242	2020646	101.855403634572	9
242	2022770	101.955243420968	9
242	2024905	102.055369207361	9
242	2027030	102.155442993752	9
242	2029154	102.255256780138	9
242	2031278	102.355291566523	9
242	2033403	102.455248352905	9
242	2035527	102.555374139283	9
242	2037651	102.655356925658	9
242	2039776	102.755443712031	9
242	2041900	102.855413498401	9
242	2044024	102.955305284767	9
242	2046160	103.05534007113	9
242	2048284	103.155374857491	9
242	2050408	103.25525364385	9
242	2052533	103.355249430204	9
242	2054657	103.455297216557	9
242	2056781	103.555254002906	9
242	2058906	103.655366789253	9
242	2061030	103.755271575595	9
242	2063154	103.855267361935	9
242	2065279	103.955341148273	9
242	2067414	104.055362934607	9
242	2069538	104.155345720938	9
242	2071663	104.255328507266	9
242	2073787	104.355285293592	9
242	2075911	104.455385079915	9
242	2078036	104.555315866235	9
242	2080160	104.655298652551	9
242	2082284	104.755398438865	9
242	2084409	104.855407225176	9
242	2086533	104.955325011485	9
242	2088668	105.05533379779	9
242	2090793	105.155342584092	9
242	2092917	105.25535137039	9
242	2095041	105.355347156687	9
242	2097166	105.455342942981	9
242	2099290	105.555299729271	9
242	2101414	105.655412515558	9
242	2103539	105.755330301842	9
242	2105663	105.855430088124	9
242	2107787	105.955412874403	9
242	2109923	106.055252660679	9
242	2112047	106.155391446952	9
242	2114171	106.255400233221	9
242	2116296	106.355383019487	9
242	2118420	106.455326805751	9
242	2120544	106.555296592012	9
242	2122669	106.655344378271	9
242	2124793	106.755249164526	9
242	2126917	106.855322950779	9
242	2129042	106.955318737028	9
242	2131177	107.055249523273	9
242	2133301	107.155388309517	9
242	2135426	107.255241095758	9
242	2137550	107.355379881996	9
242	2139674	107.455336668231	9
242	2141799	107.555267454463	9
242	2143923	107.655341240691	9
242	2146047	107.755376026916	9
242	2148172	107.855306813138	9
242	2150296	107.955328599359	9
242	2152431	108.055428385576	9
242	2154556	108.155359171791	9
242	2156680	108.255315958002	9
242	2158804	108.355259744211	9
242	2160929	108.455268530416	9
242	2163053	108.555381316618	9
242	2165177	108.655351102817	9
242	2167302	108.755307889013	9
242	2169426	108.855381675207	9
242	2171550	108.955364461398	9
242	2173686	109.055282247586	9
242	2175810	109.155252033771	9
242	2177934	109.255429819953	9
242	2180059	109.355425606132	9
242	2182183	109.455304392308	9
242	2184307	109.55543017848	9
242	2186432	109.65534796465	9
242	2188556	109.755265750816	9
242	2190680	109.855313536981	9
242	2192805	109.955296323142	9
242	2194940	110.055383109301	9
242	2197064	110.155326895457	9
242	2199189	110.25527068161	9
242	2201313	110.35534446776	9
242	2203437	110.455301253907	9
242	2205562	110.555388040051	9
242	2207686	110.655370826191	9
242	2209810	110.755405612328	9
242	2211935	110.855388398462	9
242	2214059	110.955410184594	9
242	2216194	111.055275970723	9
242	2218319	111.15524575685	9
242	2220443	111.255371542973	9
242	2222567	111.355380329094	9
242	2224692	111.455324115211	9
242	2226816	111.555319901326	9
242	2228940	111.655367687438	9
242	2231065	111.755259473547	9
242	2233189	111.855372259653	9
242	2235313	111.955303045755	9
242	2237449	112.055246831854	9
242	2239573	112.15543761795	9
242	2241697	112.255420404043	9
242	2243822	112.355351190133	9
242	2245946	112.455437976221	9
242	2248070	112.555355762305	9
242	2250195	112.655429548388	9
242	2252319	112.755399334467	9
242	2254443	112.855434120544	9
242	2256568	112.955377906617	9
242	2258703	113.055347692688	9
242	2260827	113.155343478756	9
242	2262952	113.255378264821	9
242	2265076	113.355270050883	9
242	2267200	113.455447836941	9
242	2269325	113.555378622997	9
242	2271449	113.65528340905	9
242	2273573	113.7553441951	9
242	2275698	113.855430981147	9
242	2277822	113.95527076719	9
242	2279957	114.05535755323	9
242	2282082	114.155249339268	9
242	2284206	114.255427125302	9
242	2286330	114.355357911334	9
242	2288455	114.455379697362	9
242	2290579	114.555349483388	9
242	2292703	114.655410269411	9
242	2294828	114.755328055432	9
242	2296952	114.85537584145	9
242	2299076	114.955371627464	9
242	2301212	115.055445413476	9
242	2303336	115.155337199485	9
242	2305460	115.255358985491	9
242	2307585	115.355354771494	9
242	2309709	115.455376557494	9
242	2311833	115.555398343491	9
242	2313958	115.655303129486	9
242	2316082	115.755376915477	9
242	2318206	115.855333701466	9
242	2320331	115.955264487451	9
242	2322466	116.055442273434	9
242	2324590	116.155295059413	9
242	2326715	116.25525184539	9
242	2328839	116.355338631364	9
242	2330963	116.455399417334	9
242	2333088	116.555265203302	9
242	2335212	116.655442989267	9
242	2337336	116.755399775229	9
242	2339461	116.855395561188	9
242	2341585	116.955248347143	9
242	2343720	117.055439133095	9
242	2345845	117.155447919045	9
242	2347969	117.255339704991	9
242	2350093	117.355257490935	9
242	2352218	117.455422276875	9
242	2354342	117.555301062813	9
242	2356466	117.655257848747	9
242	2358591	117.755383634679	9
242	2360715	117.855262420608	9
242	2362839	117.955349206533	9
242	2364975	118.055396992456	9
242	2367099	118.155275778376	9
242	2369223	118.255440564293	9
242	2371348	118.355384350207	9
242	2373472	118.455315136119	9
242	2375596	118.555336922028	9
242	2377721	118.655345707934	9
242	2379845	118.755302493837	9
242	2381969	118.855376279738	9
242	2384094	118.955372065635	9
242	2386229	119.05535485153	9
242	2388353	119.155298637421	9
242	2390478	119.25528142331	9
242	2392602	119.355277209196	9
242	2394726	119.455441995078	9
242	2396851	119.555372780958	9
242	2398975	119.655342566835	9
242	2401099	119.755403352709	9
242	2403224	119.85530813858	9
242	2405348	119.955329924448	9
241	110310	12	0
241	131531	13	0
241	152752	14	0
241	173973	15	0
241	195194	16	0
241	216415	17	0
241	237636	18	0
241	258857	19	0
241	280078	20	0
241	301299	21	0
241	322520	22	0
241	343741	23	0
241	364962	24	0
241	386183	25	0
241	408132	26	0
241	429386	27	0
241	450641	28	0
241	471895	29	0
241	493149	30	0
241	514404	31	0
241	535658	32	0
241	556912	33	0
241	578167	34	0
241	599421	35	0
241	620675	36	0
241	641930	37	0
241	663184	38	0
241	684438	39	0
241	705693	40	0
241	726947	41	0
241	748201	42	0
241	769456	43	0
241	790710	44	0
241	811964	45	0
241	833219	46	0
241	854473	47	0
241	875727	48	0
241	896982	49	0
241	918236	50	0
241	939490	51	0
241	960745	52	0
241	981999	53	0
241	1003253	54	0
241	1024508	55	0
241	1045762	56	0
241	1067016	57	0
241	1088271	58	0
241	1109525	59	0
241	1130779	60	0
241	1152034	61	0
241	1173288	62	0
241	1194542	63	0
241	1215797	64	0
241	1237051	65	0
241	1258305	66	0
241	1279560	67	0
241	1300814	68	0
241	1322068	69	0
241	1343323	70	0
241	1364577	71	0
241	1385831	72	0
241	1407086	73	0
241	1428340	74	0
241	1449594	75	0
241	1470849	76	0
241	1492103	77	0
241	1513357	78	0
241	1534612	79	0
241	1555866	80	0
241	1577120	81	0
241	1598375	82	0
241	1619629	83	0
241	1640883	84	0
241	1662138	85	0
241	1683392	86	0
241	1704646	87	0
241	1725901	88	0
241	1747155	89	0
241	1768409	90	0
241	1789664	91	0
241	1810918	92	0
241	1832172	93	0
241	1853427	94	0
241	1874681	95	0
241	1895935	96	0
241	1917190	97	0
241	1938444	98	0
241	1959698	99	0
241	1980953	100	0
241	2002207	101	0
241	2023461	102	0
241	2044716	103	0
241	2065970	104	0
241	2087224	105	0
241	2108479	106	0
241	2129733	107	0
241	2150987	108	0
241	2172242	109	0
241	2193496	110	0
241	2214750	111	0
241	2236005	112	0
241	2257259	113	0
241	2278513	114	0
241	2299768	115	0
241	2321022	116	0
241	2342276	117	0
241	2363531	118	0
241	2384785	119	0
241	2406039	120	0
240	110310	12	0.051593
240	131531	13	0.05457
240	152752	14	0.05457
240	173973	15	0.05457
240	195194	16	0.05457
240	216415	17	0.05457
240	237636	18	0.05457
240	258857	19	0.05457
240	280078	20	0.05457
240	301299	21	0.05457
240	322520	22	0.05457
240	343741	23	0.05457
240	364962	24	0.05457
240	386183	25	0.05457
240	408132	26	0.05689
240	429386	27	0.05457
240	450641	28	0.05457
240	471895	29	0.05457
240	493149	30	0.05457
240	514404	31	0.05457
240	535658	32	0.05457
240	556912	33	0.05457
240	578167	34	0.05457
240	599421	35	0.05457
240	620675	36	0.05457
240	641930	37	0.05457
240	663184	38	0.05457
240	684438	39	0.05457
240	705693	40	0.05457
240	726947	41	0.05457
240	748201	42	0.05457
240	769456	43	0.05457
240	790710	44	0.05457
240	811964	45	0.05457
240	833219	46	0.05457
240	854473	47	0.05457
240	875727	48	0.05457
240	896982	49	0.05457
240	918236	50	0.05457
240	939490	51	0.05457
240	960745	52	0.05457
240	981999	53	0.05457
240	1003253	54	0.05457
240	1024508	55	0.05457
240	1045762	56	0.05457
240	1067016	57	0.05457
240	1088271	58	0.05457
240	1109525	59	0.05457
240	1130779	60	0.05457
240	1152034	61	0.05457
240	1173288	62	0.05457
240	1194542	63	0.05457
240	1215797	64	0.05457
240	1237051	65	0.05457
240	1258305	66	0.05457
240	1279560	67	0.05457
240	1300814	68	0.05457
240	1322068	69	0.05457
240	1343323	70	0.05457
240	1364577	71	0.05457
240	1385831	72	0.05457
240	1407086	73	0.05457
240	1428340	74	0.05457
240	1449594	75	0.05457
240	1470849	76	0.05457
240	1492103	77	0.05457
240	1513357	78	0.05457
240	1534612	79	0.05457
240	1555866	80	0.05457
240	1577120	81	0.05457
240	1598375	82	0.05457
240	1619629	83	0.05457
240	1640883	84	0.05457
240	1662138	85	0.05457
240	1683392	86	0.05457
240	1704646	87	0.05457
240	1725901	88	0.05457
240	1747155	89	0.05457
240	1768409	90	0.05457
240	1789664	91	0.05457
240	1810918	92	0.05457
240	1832172	93	0.05457
240	1853427	94	0.05457
240	1874681	95	0.05457
240	1895935	96	0.05457
240	1917190	97	0.05457
240	1938444	98	0.05457
240	1959698	99	0.05457
240	1980953	100	0.05457
240	2002207	101	0.05457
240	2023461	102	0.05457
240	2044716	103	0.05457
240	2065970	104	0.05457
240	2087224	105	0.05457
240	2108479	106	0.05457
240	2129733	107	0.05457
240	2150987	108	0.05457
240	2172242	109	0.05457
240	2193496	110	0.05457
240	2214750	111	0.05457
240	2236005	112	0.05457
240	2257259	113	0.05457
240	2278513	114	0.05457
240	2299768	115	0.05457
240	2321022	116	0.05457
240	2342276	117	0.05457
240	2363531	118	0.05457
240	2384785	119	0.05457
240	2406039	120	0.05457
239	110310	12	9
239	131531	13	9
239	152752	14	9
239	173973	15	9
239	195194	16	9
239	216415	17	9
239	237636	18	9
239	258857	19	9
239	280078	20	9
239	301299	21	9
239	322520	22	9
239	343741	23	9
239	364962	24	9
239	386183	25	9
239	408132	26	9
239	429386	27	9
239	450641	28	9
239	471895	29	9
239	493149	30	9
239	514404	31	9
239	535658	32	9
239	556912	33	9
239	578167	34	9
239	599421	35	9
239	620675	36	9
239	641930	37	9
239	663184	38	9
239	684438	39	9
239	705693	40	9
239	726947	41	9
239	748201	42	9
239	769456	43	9
239	790710	44	9
239	811964	45	9
239	833219	46	9
239	854473	47	9
239	875727	48	9
239	896982	49	9
239	918236	50	9
239	939490	51	9
239	960745	52	9
239	981999	53	9
239	1003253	54	9
239	1024508	55	9
239	1045762	56	9
239	1067016	57	9
239	1088271	58	9
239	1109525	59	9
239	1130779	60	9
239	1152034	61	9
239	1173288	62	9
239	1194542	63	9
239	1215797	64	9
239	1237051	65	9
239	1258305	66	9
239	1279560	67	9
239	1300814	68	9
239	1322068	69	9
239	1343323	70	9
239	1364577	71	9
239	1385831	72	9
239	1407086	73	9
239	1428340	74	9
239	1449594	75	9
239	1470849	76	9
239	1492103	77	9
239	1513357	78	9
239	1534612	79	9
239	1555866	80	9
239	1577120	81	9
239	1598375	82	9
239	1619629	83	9
239	1640883	84	9
239	1662138	85	9
239	1683392	86	9
239	1704646	87	9
239	1725901	88	9
239	1747155	89	9
239	1768409	90	9
239	1789664	91	9
239	1810918	92	9
239	1832172	93	9
239	1853427	94	9
239	1874681	95	9
239	1895935	96	9
239	1917190	97	9
239	1938444	98	9
239	1959698	99	9
239	1980953	100	9
239	2002207	101	9
239	2023461	102	9
239	2044716	103	9
239	2065970	104	9
239	2087224	105	9
239	2108479	106	9
239	2129733	107	9
239	2150987	108	9
239	2172242	109	9
239	2193496	110	9
239	2214750	111	9
239	2236005	112	9
239	2257259	113	9
239	2278513	114	9
239	2299768	115	9
239	2321022	116	9
239	2342276	117	9
239	2363531	118	9
239	2384785	119	9
239	2406039	120	9
