version 2
run JoinManeuver-0-20181231-20:38:48-13057
attr beaconInterval 0.1
attr caccOmegaN 0.2
attr caccXi 1
attr configname JoinManeuver
attr datetime 20181231-20:38:48
attr experiment JoinManeuver
attr inifile omnetpp.ini
attr iterationvars "$nCars=4, $platoonSize=4, $nLanes=1, $caccXi=1, $caccOmegaN=0.2, $ploegH=0.5, $leaderHeadway=1.2, $leaderSpeed=100, $beaconInterval=0.1, $priority=2, $packetSize=200"
attr iterationvarsf nCars=4,platoonSize=4,nLanes=1,caccXi=1,caccOmegaN=0.2,ploegH=0.5,leaderHeadway=1.2,leaderSpeed=100,beaconInterval=0.1,priority=2,packetSize=200-
attr leaderHeadway 1.2
attr leaderSpeed 100
attr measurement "$nCars=4, $platoonSize=4, $nLanes=1, $caccXi=1, $caccOmegaN=0.2, $ploegH=0.5, $leaderHeadway=1.2, $leaderSpeed=100, $beaconInterval=0.1, $priority=2, $packetSize=200"
attr nCars 4
attr nLanes 1
attr network Highway
attr packetSize 200
attr platoonSize 4
attr ploegH 0.5
attr priority 2
attr processid 13057
attr repetition 0
attr replication #0
attr resultdir results
attr runnumber 0
attr seedset 0
param **.controllerOmegaN 0.2
param **.controllerXi 1
param **.coreDebug false
param **.debug false
param **.numberOfCars 4
param **.numberOfCarsPerPlatoon 4
param **.numberOfLanes 1
param **.numericController 0
param **.seed 0
param **.traffic.nCars 4
param **.traffic.nLanes 1
param **.traffic.platoonInsertDistance "5 m"
param **.traffic.platoonInsertHeadway "0 s"
param **.traffic.platoonInsertSpeed 100kmph
param **.traffic.platoonInsertTime "1 s"
param **.traffic.platoonLeaderHeadway 1.2s
param **.traffic.platoonSize 4
param **.traffic.platooningVType "\"vtypeauto\""
param **.traffic_type "\"JoinTrafficManager\""
param *.**.nic.mac1609_4.bitrate 6Mbps
param *.**.nic.mac1609_4.txPower 100mW
param *.**.nic.mac1609_4.useServiceChannel false
param *.**.nic.phy80211p.analogueModels "xmldoc(\"config.xml\")"
param *.**.nic.phy80211p.decider "xmldoc(\"config.xml\")"
param *.**.nic.phy80211p.maxTXPower 100mW
param *.**.nic.phy80211p.sensitivity -94dBm
param *.**.nic.phy80211p.thermalNoise -95dBm
param *.**.nic.phy80211p.usePropagationDelay true
param *.**.nic.phy80211p.useThermalNoise true
param *.annotations.draw false
param *.connectionManager.drawMaxIntfDist false
param *.connectionManager.maxInterfDist 2600m
param *.connectionManager.sendDirect true
param *.manager.autoShutdown true
param *.manager.configFile "\"./sumocfg/freeway.sumo.cfg\""
param *.manager.host "\"localhost\""
param *.manager.margin 25
param *.manager.moduleDisplayString "\"\""
param *.manager.moduleName "\"node\""
param *.manager.moduleType "\"org.car2x.veins.modules.application.platooning.PlatoonCar\""
param *.manager.updateInterval 0.01s
param *.manager.useGui true
param *.node[*].appl.joinManeuver "\"JoinAtBack\""
param *.node[*].appl_type "\"GeneralPlatooningApp\""
param *.node[*].helper_type "\"LocalPlatoonPositionHelper\""
param *.node[*].mobility.x 0
param *.node[*].mobility.y 0
param *.node[*].mobility.z 1.895
param *.node[*].prot.beaconingInterval 0.1s
param *.node[*].prot.packetSize 200
param *.node[*].prot.priority 2
param *.node[*].protocol_type "\"SimplePlatooningBeaconing\""
param *.node[*].scenario.accHeadway "0.1 s"
param *.node[*].scenario.caccC1 0.5
param *.node[*].scenario.caccOmegaN "0.2 Hz"
param *.node[*].scenario.caccXi 1
param *.node[*].scenario.controller "\"CACC\""
param *.node[*].scenario.engineTau "0.5 s"
param *.node[*].scenario.leaderHeadway 1.2s
param *.node[*].scenario.leaderSpeed 100kmph
param *.node[*].scenario.ploegH 0.5s
param *.node[*].scenario.ploegKd 0.7
param *.node[*].scenario.ploegKp 0.2
param *.node[*].scenario.useRealisticEngine false
param *.node[*].scenario_type "\"JoinManeuverScenario\""
param *.node[*].unicast.packetLossRate 0
param *.obstacles.debug false
param *.playgroundSizeX 65000m
param *.playgroundSizeY 25000m
param *.playgroundSizeZ 50m
param *.world.use2D false
param *.world.useTorus false

vector 254  Highway.node[0].appl  distance  ETV
vector 255  Highway.node[0].appl  relativeSpeed  ETV
vector 256  Highway.node[0].appl  nodeId  ETV
vector 260  Highway.node[0].appl  acceleration  ETV
vector 261  Highway.node[0].appl  controllerAcceleration  ETV
vector 257  Highway.node[0].appl  speed  ETV
vector 258  Highway.node[0].appl  posx  ETV
vector 259  Highway.node[0].appl  posy  ETV
vector 277  Highway.node[1].appl  distance  ETV
vector 278  Highway.node[1].appl  relativeSpeed  ETV
vector 279  Highway.node[1].appl  nodeId  ETV
vector 283  Highway.node[1].appl  acceleration  ETV
vector 284  Highway.node[1].appl  controllerAcceleration  ETV
vector 280  Highway.node[1].appl  speed  ETV
vector 281  Highway.node[1].appl  posx  ETV
vector 282  Highway.node[1].appl  posy  ETV
vector 300  Highway.node[2].appl  distance  ETV
vector 301  Highway.node[2].appl  relativeSpeed  ETV
vector 302  Highway.node[2].appl  nodeId  ETV
vector 306  Highway.node[2].appl  acceleration  ETV
vector 307  Highway.node[2].appl  controllerAcceleration  ETV
vector 303  Highway.node[2].appl  speed  ETV
vector 304  Highway.node[2].appl  posx  ETV
vector 305  Highway.node[2].appl  posy  ETV
vector 323  Highway.node[3].appl  distance  ETV
vector 324  Highway.node[3].appl  relativeSpeed  ETV
vector 325  Highway.node[3].appl  nodeId  ETV
vector 329  Highway.node[3].appl  acceleration  ETV
vector 330  Highway.node[3].appl  controllerAcceleration  ETV
vector 326  Highway.node[3].appl  speed  ETV
vector 327  Highway.node[3].appl  posx  ETV
vector 328  Highway.node[3].appl  posy  ETV
vector 337  Highway.node[3].prot  frontDelay  ETV
vector 335  Highway.node[3].prot  frontDelayId  ETV
vector 314  Highway.node[2].prot  frontDelay  ETV
vector 312  Highway.node[2].prot  frontDelayId  ETV
vector 290  Highway.node[1].prot  leaderDelay  ETV
vector 288  Highway.node[1].prot  leaderDelayId  ETV
vector 291  Highway.node[1].prot  frontDelay  ETV
vector 289  Highway.node[1].prot  frontDelayId  ETV
vector 313  Highway.node[2].prot  leaderDelay  ETV
vector 311  Highway.node[2].prot  leaderDelayId  ETV
vector 336  Highway.node[3].prot  leaderDelay  ETV
vector 334  Highway.node[3].prot  leaderDelayId  ETV
vector 346  Highway.node[4].appl  distance  ETV
vector 347  Highway.node[4].appl  relativeSpeed  ETV
vector 348  Highway.node[4].appl  nodeId  ETV
vector 352  Highway.node[4].appl  acceleration  ETV
vector 353  Highway.node[4].appl  controllerAcceleration  ETV
vector 349  Highway.node[4].appl  speed  ETV
vector 350  Highway.node[4].appl  posx  ETV
vector 351  Highway.node[4].appl  posy  ETV
vector 262  Highway.node[0].prot  nodeId  ETV
vector 263  Highway.node[0].prot  busyTime  ETV
vector 264  Highway.node[0].prot  collisions  ETV
vector 285  Highway.node[1].prot  nodeId  ETV
vector 286  Highway.node[1].prot  busyTime  ETV
vector 287  Highway.node[1].prot  collisions  ETV
vector 308  Highway.node[2].prot  nodeId  ETV
vector 309  Highway.node[2].prot  busyTime  ETV
vector 310  Highway.node[2].prot  collisions  ETV
vector 331  Highway.node[3].prot  nodeId  ETV
vector 332  Highway.node[3].prot  busyTime  ETV
vector 333  Highway.node[3].prot  collisions  ETV
vector 354  Highway.node[4].prot  nodeId  ETV
vector 355  Highway.node[4].prot  busyTime  ETV
vector 356  Highway.node[4].prot  collisions  ETV
vector 369  Highway.node[5].appl  distance  ETV
vector 370  Highway.node[5].appl  relativeSpeed  ETV
vector 371  Highway.node[5].appl  nodeId  ETV
vector 375  Highway.node[5].appl  acceleration  ETV
vector 376  Highway.node[5].appl  controllerAcceleration  ETV
vector 372  Highway.node[5].appl  speed  ETV
vector 373  Highway.node[5].appl  posx  ETV
vector 374  Highway.node[5].appl  posy  ETV
vector 377  Highway.node[5].prot  nodeId  ETV
vector 378  Highway.node[5].prot  busyTime  ETV
vector 379  Highway.node[5].prot  collisions  ETV
vector 392  Highway.node[6].appl  distance  ETV
vector 393  Highway.node[6].appl  relativeSpeed  ETV
vector 394  Highway.node[6].appl  nodeId  ETV
vector 398  Highway.node[6].appl  acceleration  ETV
vector 399  Highway.node[6].appl  controllerAcceleration  ETV
vector 395  Highway.node[6].appl  speed  ETV
vector 396  Highway.node[6].appl  posx  ETV
vector 397  Highway.node[6].appl  posy  ETV
vector 400  Highway.node[6].prot  nodeId  ETV
vector 401  Highway.node[6].prot  busyTime  ETV
vector 402  Highway.node[6].prot  collisions  ETV
261	632	1.11	-0.00218518
261	1193	1.21	-0.00213419
261	1887	1.31	-0.00205408
261	2622	1.41	-0.00195152
261	3358	1.51	-0.00183238
261	4094	1.61	-0.00170178
261	4829	1.71	-0.00156412
261	5565	1.81	-0.00142314
261	6300	1.91	-0.00128196
261	7042	2.01	-0.00114315
261	7777	2.11	-0.00100877
261	8512	2.21	-0.000880447
261	9247	2.31	-0.000759381
261	9982	2.41	-0.000646445
261	10717	2.51	-0.000542204
261	11452	2.61	-0.000446965
261	12187	2.71	-0.000360819
261	12922	2.81	-0.000283678
261	13657	2.91	-0.000215307
261	14401	3.01	-0.000155357
261	15278	3.11	-0.000103391
261	16204	3.21	-5.89069e-05
261	17130	3.31	-2.13575e-05
261	18056	3.41	9.82919e-06
261	18982	3.51	3.52368e-05
261	19908	3.61	5.54479e-05
261	20834	3.71	7.10335e-05
261	21760	3.81	8.25451e-05
261	22686	3.91	9.05081e-05
261	23619	4.01	9.54172e-05
261	24545	4.11	9.7733e-05
261	25471	4.21	9.78798e-05
261	26397	4.31	9.62447e-05
261	27323	4.41	9.31771e-05
261	28249	4.51	8.89894e-05
261	29175	4.61	8.39579e-05
261	30101	4.71	7.83245e-05
261	31027	4.81	7.22983e-05
261	31953	4.91	6.6058e-05
261	32886	5.01	5.9754e-05
261	33962	5.11	5.35107e-05
261	35095	5.21	4.74294e-05
261	36228	5.31	4.15898e-05
261	37361	5.41	3.60534e-05
261	38494	5.51	3.0865e-05
261	39627	5.61	2.60551e-05
261	40760	5.71	2.16419e-05
261	41893	5.81	1.76335e-05
261	43027	5.91	1.40289e-05
261	44167	6.01	1.08202e-05
261	45300	6.11	7.99392e-06
261	46433	6.21	5.532e-06
261	47566	6.31	3.41315e-06
261	48699	6.41	1.61374e-06
261	49832	6.51	1.08654e-07
261	50965	6.61	-1.12799e-06
261	52098	6.71	-2.12224e-06
261	53231	6.81	-2.89981e-06
261	54364	6.91	-3.48567e-06
261	55505	7.01	-3.90376e-06
261	56638	7.11	-4.17673e-06
261	57771	7.21	-4.32574e-06
261	58904	7.31	-4.3704e-06
261	60037	7.41	-4.32865e-06
261	61170	7.51	-4.21676e-06
261	62303	7.61	-4.04934e-06
261	63436	7.71	-3.83937e-06
261	64569	7.81	-3.59826e-06
261	65702	7.91	-3.33592e-06
261	66842	8.01	-3.06089e-06
261	67975	8.11	-2.78036e-06
261	69108	8.21	-2.50036e-06
261	70241	8.31	-2.22582e-06
261	71374	8.41	-1.96068e-06
261	72507	8.51	-1.708e-06
261	73640	8.61	-1.47009e-06
261	74773	8.71	-1.24855e-06
261	75906	8.81	-1.04441e-06
261	77039	8.91	-8.58219e-07
261	78179	9.01	-6.90082e-07
260	632	1.11	-0.000358191
260	1193	1.21	-0.000681704
260	1887	1.31	-0.00093487
260	2622	1.41	-0.00112579
260	3358	1.51	-0.00126221
260	4094	1.61	-0.00135149
260	4829	1.71	-0.00140049
260	5565	1.81	-0.00141557
260	6300	1.91	-0.00140255
260	7042	2.01	-0.00136671
260	7777	2.11	-0.0013128
260	8512	2.21	-0.00124502
260	9247	2.31	-0.0011671
260	9982	2.41	-0.00108223
260	10717	2.51	-0.000993208
260	11452	2.61	-0.000902362
260	12187	2.71	-0.000811651
260	12922	2.81	-0.000722679
260	13657	2.91	-0.000636729
260	14401	3.01	-0.0005548
260	15278	3.11	-0.000477639
260	16204	3.21	-0.000405773
260	17130	3.31	-0.00033954
260	18056	3.41	-0.000279116
260	18982	3.51	-0.000224541
260	19908	3.61	-0.000175743
260	20834	3.71	-0.00013256
260	21760	3.81	-9.47571e-05
260	22686	3.91	-6.2046e-05
260	23619	4.01	-3.40986e-05
260	24545	4.11	-1.05605e-05
260	25471	4.21	8.93844e-06
260	26397	4.31	2.4774e-05
260	27323	4.41	3.73203e-05
260	28249	4.51	4.69433e-05
260	29175	4.61	5.39956e-05
260	30101	4.71	5.88124e-05
260	31027	4.81	6.1709e-05
260	31953	4.91	6.29785e-05
260	32886	5.01	6.28903e-05
260	33962	5.11	6.169e-05
260	35095	5.21	5.95988e-05
260	36228	5.31	5.68144e-05
260	37361	5.41	5.35112e-05
260	38494	5.51	4.98416e-05
260	39627	5.61	4.59373e-05
260	40760	5.71	4.19105e-05
260	41893	5.81	3.78555e-05
260	43027	5.91	3.38499e-05
260	44167	6.01	2.99569e-05
260	45300	6.11	2.62259e-05
260	46433	6.21	2.26948e-05
260	47566	6.31	1.93911e-05
260	48699	6.41	1.6333e-05
260	49832	6.51	1.35314e-05
260	50965	6.61	1.09904e-05
260	52098	6.71	8.70882e-06
260	53231	6.81	6.6809e-06
260	54364	6.91	4.89747e-06
260	55505	7.01	3.3466e-06
260	56638	7.11	2.01432e-06
260	57771	7.21	8.85256e-07
260	58904	7.31	-5.68459e-08
260	60037	7.41	-8.28678e-07
260	61170	7.51	-1.44699e-06
260	62303	7.61	-1.92826e-06
260	63436	7.71	-2.28849e-06
260	64569	7.81	-2.54296e-06
260	65702	7.91	-2.7061e-06
260	66842	8.01	-2.79139e-06
260	67975	8.11	-2.8113e-06
260	69108	8.21	-2.77721e-06
260	70241	8.31	-2.69943e-06
260	71374	8.41	-2.58721e-06
260	72507	8.51	-2.44874e-06
260	73640	8.61	-2.29123e-06
260	74773	8.71	-2.12092e-06
260	75906	8.81	-1.94317e-06
260	77039	8.91	-1.7625e-06
260	78179	9.01	-1.58267e-06
259	632	1.11	242.45
259	1193	1.21	242.45
259	1887	1.31	242.45
259	2622	1.41	242.45
259	3358	1.51	242.45
259	4094	1.61	242.45
259	4829	1.71	242.45
259	5565	1.81	242.45
259	6300	1.91	242.45
259	7042	2.01	242.45
259	7777	2.11	242.45
259	8512	2.21	242.45
259	9247	2.31	242.45
259	9982	2.41	242.45
259	10717	2.51	242.45
259	11452	2.61	242.45
259	12187	2.71	242.45
259	12922	2.81	242.45
259	13657	2.91	242.45
259	14401	3.01	242.45
259	15278	3.11	242.45
259	16204	3.21	242.45
259	17130	3.31	242.45
259	18056	3.41	242.45
259	18982	3.51	242.45
259	19908	3.61	242.45
259	20834	3.71	242.45
259	21760	3.81	242.45
259	22686	3.91	242.45
259	23619	4.01	242.45
259	24545	4.11	242.45
259	25471	4.21	242.45
259	26397	4.31	242.45
259	27323	4.41	242.45
259	28249	4.51	242.45
259	29175	4.61	242.45
259	30101	4.71	242.45
259	31027	4.81	242.45
259	31953	4.91	242.45
259	32886	5.01	242.45
259	33962	5.11	242.45
259	35095	5.21	242.45
259	36228	5.31	242.45
259	37361	5.41	242.45
259	38494	5.51	242.45
259	39627	5.61	242.45
259	40760	5.71	242.45
259	41893	5.81	242.45
259	43027	5.91	242.45
259	44167	6.01	242.45
259	45300	6.11	242.45
259	46433	6.21	242.45
259	47566	6.31	242.45
259	48699	6.41	242.45
259	49832	6.51	242.45
259	50965	6.61	242.45
259	52098	6.71	242.45
259	53231	6.81	242.45
259	54364	6.91	242.45
259	55505	7.01	242.45
259	56638	7.11	242.45
259	57771	7.21	242.45
259	58904	7.31	242.45
259	60037	7.41	242.45
259	61170	7.51	242.45
259	62303	7.61	242.45
259	63436	7.71	242.45
259	64569	7.81	242.45
259	65702	7.91	242.45
259	66842	8.01	242.45
259	67975	8.11	242.45
259	69108	8.21	242.45
259	70241	8.31	242.45
259	71374	8.41	242.45
259	72507	8.51	242.45
259	73640	8.61	242.45
259	74773	8.71	242.45
259	75906	8.81	242.45
259	77039	8.91	242.45
259	78179	9.01	242.45
258	632	1.11	37.9402
258	1193	1.21	40.7182
258	1887	1.31	43.4962
258	2622	1.41	46.2742
258	3358	1.51	49.0521
258	4094	1.61	51.8301
258	4829	1.71	54.608
258	5565	1.81	57.386
258	6300	1.91	60.1639
258	7042	2.01	62.9418
258	7777	2.11	65.7197
258	8512	2.21	68.4975
258	9247	2.31	71.2754
258	9982	2.41	74.0532
258	10717	2.51	76.8311
258	11452	2.61	79.6089
258	12187	2.71	82.3867
258	12922	2.81	85.1645
258	13657	2.91	87.9423
258	14401	3.01	90.7201
258	15278	3.11	93.4979
258	16204	3.21	96.2757
258	17130	3.31	99.0535
258	18056	3.41	101.831
258	18982	3.51	104.609
258	19908	3.61	107.387
258	20834	3.71	110.165
258	21760	3.81	112.942
258	22686	3.91	115.72
258	23619	4.01	118.498
258	24545	4.11	121.276
258	25471	4.21	124.053
258	26397	4.31	126.831
258	27323	4.41	129.609
258	28249	4.51	132.387
258	29175	4.61	135.165
258	30101	4.71	137.942
258	31027	4.81	140.72
258	31953	4.91	143.498
258	32886	5.01	146.276
258	33962	5.11	149.053
258	35095	5.21	151.831
258	36228	5.31	154.609
258	37361	5.41	157.387
258	38494	5.51	160.165
258	39627	5.61	162.942
258	40760	5.71	165.72
258	41893	5.81	168.498
258	43027	5.91	171.276
258	44167	6.01	174.053
258	45300	6.11	176.831
258	46433	6.21	179.609
258	47566	6.31	182.387
258	48699	6.41	185.165
258	49832	6.51	187.942
258	50965	6.61	190.72
258	52098	6.71	193.498
258	53231	6.81	196.276
258	54364	6.91	199.053
258	55505	7.01	201.831
258	56638	7.11	204.609
258	57771	7.21	207.387
258	58904	7.31	210.165
258	60037	7.41	212.942
258	61170	7.51	215.72
258	62303	7.61	218.498
258	63436	7.71	221.276
258	64569	7.81	224.053
258	65702	7.91	226.831
258	66842	8.01	229.609
258	67975	8.11	232.387
258	69108	8.21	235.165
258	70241	8.31	237.942
258	71374	8.41	240.72
258	72507	8.51	243.498
258	73640	8.61	246.276
258	74773	8.71	249.053
258	75906	8.81	251.831
258	77039	8.91	254.609
258	78179	9.01	257.387
257	632	1.11	27.78
257	1193	1.21	27.7799
257	1887	1.31	27.7798
257	2622	1.41	27.7797
257	3358	1.51	27.7796
257	4094	1.61	27.7795
257	4829	1.71	27.7794
257	5565	1.81	27.7792
257	6300	1.91	27.7791
257	7042	2.01	27.7789
257	7777	2.11	27.7788
257	8512	2.21	27.7787
257	9247	2.31	27.7785
257	9982	2.41	27.7784
257	10717	2.51	27.7783
257	11452	2.61	27.7782
257	12187	2.71	27.7782
257	12922	2.81	27.7781
257	13657	2.91	27.778
257	14401	3.01	27.7779
257	15278	3.11	27.7779
257	16204	3.21	27.7779
257	17130	3.31	27.7778
257	18056	3.41	27.7778
257	18982	3.51	27.7778
257	19908	3.61	27.7777
257	20834	3.71	27.7777
257	21760	3.81	27.7777
257	22686	3.91	27.7777
257	23619	4.01	27.7777
257	24545	4.11	27.7777
257	25471	4.21	27.7777
257	26397	4.31	27.7777
257	27323	4.41	27.7777
257	28249	4.51	27.7777
257	29175	4.61	27.7777
257	30101	4.71	27.7777
257	31027	4.81	27.7777
257	31953	4.91	27.7777
257	32886	5.01	27.7777
257	33962	5.11	27.7777
257	35095	5.21	27.7778
257	36228	5.31	27.7778
257	37361	5.41	27.7778
257	38494	5.51	27.7778
257	39627	5.61	27.7778
257	40760	5.71	27.7778
257	41893	5.81	27.7778
257	43027	5.91	27.7778
257	44167	6.01	27.7778
257	45300	6.11	27.7778
257	46433	6.21	27.7778
257	47566	6.31	27.7778
257	48699	6.41	27.7778
257	49832	6.51	27.7778
257	50965	6.61	27.7778
257	52098	6.71	27.7778
257	53231	6.81	27.7778
257	54364	6.91	27.7778
257	55505	7.01	27.7778
257	56638	7.11	27.7778
257	57771	7.21	27.7778
257	58904	7.31	27.7778
257	60037	7.41	27.7778
257	61170	7.51	27.7778
257	62303	7.61	27.7778
257	63436	7.71	27.7778
257	64569	7.81	27.7778
257	65702	7.91	27.7778
257	66842	8.01	27.7778
257	67975	8.11	27.7778
257	69108	8.21	27.7778
257	70241	8.31	27.7778
257	71374	8.41	27.7778
257	72507	8.51	27.7778
257	73640	8.61	27.7778
257	74773	8.71	27.7778
257	75906	8.81	27.7778
257	77039	8.91	27.7778
257	78179	9.01	27.7778
255	632	1.11	0
255	1193	1.21	0
255	1887	1.31	0
255	2622	1.41	0
255	3358	1.51	0
255	4094	1.61	0
255	4829	1.71	0
255	5565	1.81	0
255	6300	1.91	0
255	7042	2.01	0
255	7777	2.11	0
255	8512	2.21	0
255	9247	2.31	0
255	9982	2.41	0
255	10717	2.51	0
255	11452	2.61	0
255	12187	2.71	0
255	12922	2.81	0
255	13657	2.91	0
255	14401	3.01	0
255	15278	3.11	0
255	16204	3.21	0
255	17130	3.31	0
255	18056	3.41	0
255	18982	3.51	0
255	19908	3.61	0
255	20834	3.71	0
255	21760	3.81	0
255	22686	3.91	0
255	23619	4.01	0
255	24545	4.11	0
255	25471	4.21	0
255	26397	4.31	0
255	27323	4.41	0
255	28249	4.51	0
255	29175	4.61	0
255	30101	4.71	0
255	31027	4.81	0
255	31953	4.91	0
255	32886	5.01	0
255	33962	5.11	0
255	35095	5.21	0
255	36228	5.31	0
255	37361	5.41	0
255	38494	5.51	0
255	39627	5.61	0
255	40760	5.71	0
255	41893	5.81	0
255	43027	5.91	0
255	44167	6.01	0
255	45300	6.11	0
255	46433	6.21	0
255	47566	6.31	0
255	48699	6.41	0
255	49832	6.51	0
255	50965	6.61	0
255	52098	6.71	0
255	53231	6.81	0
255	54364	6.91	0
255	55505	7.01	0
255	56638	7.11	0
255	57771	7.21	0
255	58904	7.31	0
255	60037	7.41	0
255	61170	7.51	0
255	62303	7.61	0
255	63436	7.71	0
255	64569	7.81	0
255	65702	7.91	0
255	66842	8.01	0
255	67975	8.11	0
255	69108	8.21	0
255	70241	8.31	0
255	71374	8.41	0
255	72507	8.51	0
255	73640	8.61	0
255	74773	8.71	0
255	75906	8.81	0
255	77039	8.91	0
255	78179	9.01	0
254	632	1.11	-1
254	1193	1.21	-1
254	1887	1.31	-1
254	2622	1.41	-1
254	3358	1.51	-1
254	4094	1.61	-1
254	4829	1.71	-1
254	5565	1.81	-1
254	6300	1.91	-1
254	7042	2.01	-1
254	7777	2.11	-1
254	8512	2.21	-1
254	9247	2.31	-1
254	9982	2.41	-1
254	10717	2.51	-1
254	11452	2.61	-1
254	12187	2.71	-1
254	12922	2.81	-1
254	13657	2.91	-1
254	14401	3.01	-1
254	15278	3.11	-1
254	16204	3.21	-1
254	17130	3.31	-1
254	18056	3.41	-1
254	18982	3.51	-1
254	19908	3.61	-1
254	20834	3.71	-1
254	21760	3.81	-1
254	22686	3.91	-1
254	23619	4.01	-1
254	24545	4.11	-1
254	25471	4.21	-1
254	26397	4.31	-1
254	27323	4.41	-1
254	28249	4.51	-1
254	29175	4.61	-1
254	30101	4.71	-1
254	31027	4.81	-1
254	31953	4.91	-1
254	32886	5.01	-1
254	33962	5.11	-1
254	35095	5.21	-1
254	36228	5.31	-1
254	37361	5.41	-1
254	38494	5.51	-1
254	39627	5.61	-1
254	40760	5.71	-1
254	41893	5.81	-1
254	43027	5.91	-1
254	44167	6.01	-1
254	45300	6.11	-1
254	46433	6.21	-1
254	47566	6.31	-1
254	48699	6.41	-1
254	49832	6.51	-1
254	50965	6.61	-1
254	52098	6.71	-1
254	53231	6.81	-1
254	54364	6.91	-1
254	55505	7.01	-1
254	56638	7.11	-1
254	57771	7.21	-1
254	58904	7.31	-1
254	60037	7.41	-1
254	61170	7.51	-1
254	62303	7.61	-1
254	63436	7.71	-1
254	64569	7.81	-1
254	65702	7.91	-1
254	66842	8.01	-1
254	67975	8.11	-1
254	69108	8.21	-1
254	70241	8.31	-1
254	71374	8.41	-1
254	72507	8.51	-1
254	73640	8.61	-1
254	74773	8.71	-1
254	75906	8.81	-1
254	77039	8.91	-1
254	78179	9.01	-1
256	632	1.11	0
256	1193	1.21	0
256	1887	1.31	0
256	2622	1.41	0
256	3358	1.51	0
256	4094	1.61	0
256	4829	1.71	0
256	5565	1.81	0
256	6300	1.91	0
256	7042	2.01	0
256	7777	2.11	0
256	8512	2.21	0
256	9247	2.31	0
256	9982	2.41	0
256	10717	2.51	0
256	11452	2.61	0
256	12187	2.71	0
256	12922	2.81	0
256	13657	2.91	0
256	14401	3.01	0
256	15278	3.11	0
256	16204	3.21	0
256	17130	3.31	0
256	18056	3.41	0
256	18982	3.51	0
256	19908	3.61	0
256	20834	3.71	0
256	21760	3.81	0
256	22686	3.91	0
256	23619	4.01	0
256	24545	4.11	0
256	25471	4.21	0
256	26397	4.31	0
256	27323	4.41	0
256	28249	4.51	0
256	29175	4.61	0
256	30101	4.71	0
256	31027	4.81	0
256	31953	4.91	0
256	32886	5.01	0
256	33962	5.11	0
256	35095	5.21	0
256	36228	5.31	0
256	37361	5.41	0
256	38494	5.51	0
256	39627	5.61	0
256	40760	5.71	0
256	41893	5.81	0
256	43027	5.91	0
256	44167	6.01	0
256	45300	6.11	0
256	46433	6.21	0
256	47566	6.31	0
256	48699	6.41	0
256	49832	6.51	0
256	50965	6.61	0
256	52098	6.71	0
256	53231	6.81	0
256	54364	6.91	0
256	55505	7.01	0
256	56638	7.11	0
256	57771	7.21	0
256	58904	7.31	0
256	60037	7.41	0
256	61170	7.51	0
256	62303	7.61	0
256	63436	7.71	0
256	64569	7.81	0
256	65702	7.91	0
256	66842	8.01	0
256	67975	8.11	0
256	69108	8.21	0
256	70241	8.31	0
256	71374	8.41	0
256	72507	8.51	0
256	73640	8.61	0
256	74773	8.71	0
256	75906	8.81	0
256	77039	8.91	0
256	78179	9.01	0
264	6942	2	0
264	14302	3	0
264	23451	4	0
264	32718	5	0
264	43972	6	0
264	55310	7	0
264	66647	8	0
264	77984	9	0
263	6942	2	0.020841
263	14302	3	0.02481
263	23451	4	0.028778
263	32718	5	0.02977
263	43972	6	0.034234
263	55310	7	0.03473
263	66647	8	0.03473
263	77984	9	0.03473
262	6942	2	0
262	14302	3	0
262	23451	4	0
262	32718	5	0
262	43972	6	0
262	55310	7	0
262	66647	8	0
262	77984	9	0
284	633	1.11	0
284	1194	1.21	-0.00217285
284	1888	1.31	-0.00213775
284	2623	1.41	-0.0020631
284	3359	1.51	-0.00195808
284	4095	1.61	-0.00183085
284	4830	1.71	-0.00172846
284	5566	1.81	-0.00157681
284	6301	1.91	-0.00146105
284	7043	2.01	-0.00130536
284	7778	2.11	-0.00115331
284	8513	2.21	-0.00104775
284	9248	2.31	-0.000910733
284	9983	2.41	-0.000783914
284	10718	2.51	-0.000668494
284	11453	2.61	-0.000565227
284	12188	2.71	-0.000474485
284	12923	2.81	-0.000396326
284	13658	2.91	-0.00033054
284	14402	3.01	-0.000236741
284	15279	3.11	-0.000194553
284	16205	3.21	-0.000123291
284	17131	3.31	-0.000102323
284	18057	3.41	-5.07776e-05
284	18983	3.51	-7.92794e-06
284	19909	3.61	2.69549e-05
284	20835	3.71	1.46558e-05
284	21761	3.81	3.61469e-05
284	22687	3.91	5.21747e-05
284	23620	4.01	6.3421e-05
284	24546	4.11	7.05393e-05
284	25472	4.21	7.41479e-05
284	26398	4.31	7.48229e-05
284	27324	4.41	7.30949e-05
284	28250	4.51	6.94465e-05
284	29176	4.61	6.4311e-05
284	30102	4.71	5.80739e-05
284	31028	4.81	5.10725e-05
284	31954	4.91	4.35991e-05
284	32887	5.01	3.59033e-05
284	33963	5.11	2.81941e-05
284	35096	5.21	6.06133e-05
284	36229	5.31	5.30879e-05
284	37362	5.41	4.57286e-05
284	38495	5.51	3.8661e-05
284	39628	5.61	3.19804e-05
284	40761	5.71	2.57559e-05
284	41894	5.81	2.00341e-05
284	43028	5.91	1.48428e-05
284	44168	6.01	1.01937e-05
284	45301	6.11	6.08526e-06
284	46434	6.21	2.5057e-06
284	47567	6.31	-5.65314e-07
284	48700	6.41	-3.15445e-06
284	49833	6.51	-5.293e-06
284	50966	6.61	-7.01543e-06
284	52099	6.71	-8.35809e-06
284	53232	6.81	-9.35824e-06
284	54365	6.91	-1.0053e-05
284	55506	7.01	-1.04789e-05
284	56639	7.11	-1.0671e-05
284	57772	7.21	-1.06628e-05
284	58905	7.31	-1.04855e-05
284	60038	7.41	-1.01683e-05
284	61171	7.51	-9.73774e-06
284	62304	7.61	-9.21806e-06
284	63437	7.71	-8.6309e-06
284	64570	7.81	-7.99547e-06
284	65703	7.91	-7.32861e-06
284	66843	8.01	-6.64488e-06
284	67976	8.11	-5.95675e-06
284	69109	8.21	-5.27466e-06
284	70242	8.31	-4.60726e-06
284	71375	8.41	-3.9615e-06
284	72508	8.51	-3.34286e-06
284	73641	8.61	-2.75549e-06
284	74774	8.71	-2.20231e-06
284	75907	8.81	-1.6853e-06
284	77040	8.91	-1.20547e-06
284	78180	9.01	-7.63141e-07
283	633	1.11	0
283	1194	1.21	-0.00020453
283	1888	1.31	-0.000554877
283	2623	1.41	-0.000832247
283	3359	1.51	-0.00104351
283	4095	1.61	-0.00119586
283	4830	1.71	-0.00130032
283	5566	1.81	-0.00136297
283	6301	1.91	-0.00139051
283	7043	2.01	-0.00138854
283	7778	2.11	-0.00135929
283	8513	2.21	-0.00131236
283	9248	2.31	-0.00125193
283	9983	2.41	-0.0011787
283	10718	2.51	-0.00109691
283	11453	2.61	-0.00101022
283	12188	2.71	-0.000921739
283	12923	2.81	-0.000834034
283	13658	2.91	-0.000749208
283	14402	3.01	-0.000665159
283	15279	3.11	-0.000584221
283	16205	3.21	-0.000507502
283	17131	3.31	-0.000436504
283	18057	3.41	-0.00037161
283	18983	3.51	-0.00030993
283	19909	3.61	-0.000252384
283	20835	3.71	-0.000203358
283	21761	3.81	-0.000162163
283	22687	3.91	-0.000125022
283	23620	4.01	-9.21226e-05
283	24546	4.11	-6.35018e-05
283	25472	4.21	-3.90742e-05
283	26398	4.31	-1.8663e-05
283	27324	4.41	-2.02385e-06
283	28250	4.51	1.11347e-05
283	29176	4.61	2.11338e-05
283	30102	4.71	2.83102e-05
283	31028	4.81	3.30049e-05
283	31954	4.91	3.55541e-05
283	32887	5.01	3.62819e-05
283	33963	5.11	3.54954e-05
283	35096	5.21	3.72501e-05
283	36229	5.31	4.07487e-05
283	37362	5.41	4.22803e-05
283	38495	5.51	4.22404e-05
283	39628	5.61	4.09731e-05
283	40761	5.71	3.87753e-05
283	41894	5.81	3.59008e-05
283	43028	5.91	3.25641e-05
283	44168	6.01	2.8945e-05
283	45301	6.11	2.51916e-05
283	46434	6.21	2.1424e-05
283	47567	6.31	1.77381e-05
283	48700	6.41	1.42081e-05
283	49833	6.51	1.08896e-05
283	50966	6.61	7.82237e-06
283	52099	6.71	5.03258e-06
283	53232	6.81	2.53512e-06
283	54365	6.91	3.35502e-07
283	55506	7.01	-1.56836e-06
283	56639	7.11	-3.18462e-06
283	57772	7.21	-4.5261e-06
283	58905	7.31	-5.60915e-06
283	60038	7.41	-6.45258e-06
283	61171	7.51	-7.07682e-06
283	62304	7.61	-7.50319e-06
283	63437	7.71	-7.75328e-06
283	64570	7.81	-7.84844e-06
283	65703	7.91	-7.80945e-06
283	66843	8.01	-7.65614e-06
283	67976	8.11	-7.4072e-06
283	69109	8.21	-7.08001e-06
283	70242	8.31	-6.69054e-06
283	71375	8.41	-6.25326e-06
283	72508	8.51	-5.78119e-06
283	73641	8.61	-5.28583e-06
283	74774	8.71	-4.77726e-06
283	75907	8.81	-4.26418e-06
283	77040	8.91	-3.754e-06
283	78180	9.01	-3.25291e-06
282	633	1.11	242.45
282	1194	1.21	242.45
282	1888	1.31	242.45
282	2623	1.41	242.45
282	3359	1.51	242.45
282	4095	1.61	242.45
282	4830	1.71	242.45
282	5566	1.81	242.45
282	6301	1.91	242.45
282	7043	2.01	242.45
282	7778	2.11	242.45
282	8513	2.21	242.45
282	9248	2.31	242.45
282	9983	2.41	242.45
282	10718	2.51	242.45
282	11453	2.61	242.45
282	12188	2.71	242.45
282	12923	2.81	242.45
282	13658	2.91	242.45
282	14402	3.01	242.45
282	15279	3.11	242.45
282	16205	3.21	242.45
282	17131	3.31	242.45
282	18057	3.41	242.45
282	18983	3.51	242.45
282	19909	3.61	242.45
282	20835	3.71	242.45
282	21761	3.81	242.45
282	22687	3.91	242.45
282	23620	4.01	242.45
282	24546	4.11	242.45
282	25472	4.21	242.45
282	26398	4.31	242.45
282	27324	4.41	242.45
282	28250	4.51	242.45
282	29176	4.61	242.45
282	30102	4.71	242.45
282	31028	4.81	242.45
282	31954	4.91	242.45
282	32887	5.01	242.45
282	33963	5.11	242.45
282	35096	5.21	242.45
282	36229	5.31	242.45
282	37362	5.41	242.45
282	38495	5.51	242.45
282	39628	5.61	242.45
282	40761	5.71	242.45
282	41894	5.81	242.45
282	43028	5.91	242.45
282	44168	6.01	242.45
282	45301	6.11	242.45
282	46434	6.21	242.45
282	47567	6.31	242.45
282	48700	6.41	242.45
282	49833	6.51	242.45
282	50966	6.61	242.45
282	52099	6.71	242.45
282	53232	6.81	242.45
282	54365	6.91	242.45
282	55506	7.01	242.45
282	56639	7.11	242.45
282	57772	7.21	242.45
282	58905	7.31	242.45
282	60038	7.41	242.45
282	61171	7.51	242.45
282	62304	7.61	242.45
282	63437	7.71	242.45
282	64570	7.81	242.45
282	65703	7.91	242.45
282	66843	8.01	242.45
282	67976	8.11	242.45
282	69109	8.21	242.45
282	70242	8.31	242.45
282	71375	8.41	242.45
282	72508	8.51	242.45
282	73641	8.61	242.45
282	74774	8.71	242.45
282	75907	8.81	242.45
282	77040	8.91	242.45
282	78180	9.01	242.45
281	633	1.11	28.9402
281	1194	1.21	31.7182
281	1888	1.31	34.4962
281	2623	1.41	37.2742
281	3359	1.51	40.0522
281	4095	1.61	42.8301
281	4830	1.71	45.6081
281	5566	1.81	48.3861
281	6301	1.91	51.164
281	7043	2.01	53.9419
281	7778	2.11	56.7198
281	8513	2.21	59.4977
281	9248	2.31	62.2756
281	9983	2.41	65.0535
281	10718	2.51	67.8313
281	11453	2.61	70.6092
281	12188	2.71	73.387
281	12923	2.81	76.1648
281	13658	2.91	78.9426
281	14402	3.01	81.7204
281	15279	3.11	84.4982
281	16205	3.21	87.276
281	17131	3.31	90.0538
281	18057	3.41	92.8316
281	18983	3.51	95.6094
281	19909	3.61	98.3872
281	20835	3.71	101.165
281	21761	3.81	103.943
281	22687	3.91	106.721
281	23620	4.01	109.498
281	24546	4.11	112.276
281	25472	4.21	115.054
281	26398	4.31	117.832
281	27324	4.41	120.609
281	28250	4.51	123.387
281	29176	4.61	126.165
281	30102	4.71	128.943
281	31028	4.81	131.72
281	31954	4.91	134.498
281	32887	5.01	137.276
281	33963	5.11	140.054
281	35096	5.21	142.832
281	36229	5.31	145.609
281	37362	5.41	148.387
281	38495	5.51	151.165
281	39628	5.61	153.943
281	40761	5.71	156.72
281	41894	5.81	159.498
281	43028	5.91	162.276
281	44168	6.01	165.054
281	45301	6.11	167.832
281	46434	6.21	170.609
281	47567	6.31	173.387
281	48700	6.41	176.165
281	49833	6.51	178.943
281	50966	6.61	181.72
281	52099	6.71	184.498
281	53232	6.81	187.276
281	54365	6.91	190.054
281	55506	7.01	192.832
281	56639	7.11	195.609
281	57772	7.21	198.387
281	58905	7.31	201.165
281	60038	7.41	203.943
281	61171	7.51	206.72
281	62304	7.61	209.498
281	63437	7.71	212.276
281	64570	7.81	215.054
281	65703	7.91	217.832
281	66843	8.01	220.609
281	67976	8.11	223.387
281	69109	8.21	226.165
281	70242	8.31	228.943
281	71375	8.41	231.72
281	72508	8.51	234.498
281	73641	8.61	237.276
281	74774	8.71	240.054
281	75907	8.81	242.832
281	77040	8.91	245.609
281	78180	9.01	248.387
280	633	1.11	27.78
280	1194	1.21	27.78
280	1888	1.31	27.78
280	2623	1.41	27.7799
280	3359	1.51	27.7798
280	4095	1.61	27.7797
280	4830	1.71	27.7795
280	5566	1.81	27.7794
280	6301	1.91	27.7793
280	7043	2.01	27.7791
280	7778	2.11	27.779
280	8513	2.21	27.7789
280	9248	2.31	27.7787
280	9983	2.41	27.7786
280	10718	2.51	27.7785
280	11453	2.61	27.7784
280	12188	2.71	27.7783
280	12923	2.81	27.7782
280	13658	2.91	27.7781
280	14402	3.01	27.7781
280	15279	3.11	27.778
280	16205	3.21	27.7779
280	17131	3.31	27.7779
280	18057	3.41	27.7779
280	18983	3.51	27.7778
280	19909	3.61	27.7778
280	20835	3.71	27.7778
280	21761	3.81	27.7778
280	22687	3.91	27.7777
280	23620	4.01	27.7777
280	24546	4.11	27.7777
280	25472	4.21	27.7777
280	26398	4.31	27.7777
280	27324	4.41	27.7777
280	28250	4.51	27.7777
280	29176	4.61	27.7777
280	30102	4.71	27.7777
280	31028	4.81	27.7777
280	31954	4.91	27.7777
280	32887	5.01	27.7777
280	33963	5.11	27.7777
280	35096	5.21	27.7777
280	36229	5.31	27.7777
280	37362	5.41	27.7777
280	38495	5.51	27.7778
280	39628	5.61	27.7778
280	40761	5.71	27.7778
280	41894	5.81	27.7778
280	43028	5.91	27.7778
280	44168	6.01	27.7778
280	45301	6.11	27.7778
280	46434	6.21	27.7778
280	47567	6.31	27.7778
280	48700	6.41	27.7778
280	49833	6.51	27.7778
280	50966	6.61	27.7778
280	52099	6.71	27.7778
280	53232	6.81	27.7778
280	54365	6.91	27.7778
280	55506	7.01	27.7778
280	56639	7.11	27.7778
280	57772	7.21	27.7778
280	58905	7.31	27.7778
280	60038	7.41	27.7778
280	61171	7.51	27.7778
280	62304	7.61	27.7778
280	63437	7.71	27.7778
280	64570	7.81	27.7778
280	65703	7.91	27.7778
280	66843	8.01	27.7778
280	67976	8.11	27.7778
280	69109	8.21	27.7778
280	70242	8.31	27.7778
280	71375	8.41	27.7778
280	72508	8.51	27.7778
280	73641	8.61	27.7778
280	74774	8.71	27.7778
280	75907	8.81	27.7778
280	77040	8.91	27.7778
280	78180	9.01	27.7778
278	633	1.11	-1.84044e-05
278	1194	1.21	-6.64177e-05
278	1888	1.31	-0.000108668
278	2623	1.41	-0.000141747
278	3359	1.51	-0.000166792
278	4095	1.61	-0.000184985
278	4830	1.71	-0.000197375
278	5566	1.81	-0.00020455
278	6301	1.91	-0.000207455
278	7043	2.01	-0.000206581
278	7778	2.11	-0.000202844
278	8513	2.21	-0.000196962
278	9248	2.31	-0.000189097
278	9983	2.41	-0.000179826
278	10718	2.51	-0.000169655
278	11453	2.61	-0.00015895
278	12188	2.71	-0.000147955
278	12923	2.81	-0.000136808
278	13658	2.91	-0.000125559
278	14402	3.01	-0.000114298
278	15279	3.11	-0.000103458
278	16205	3.21	-9.29722e-05
278	17131	3.31	-8.30799e-05
278	18057	3.41	-7.35615e-05
278	18983	3.51	-6.46513e-05
278	19909	3.61	-5.65558e-05
278	20835	3.71	-4.92796e-05
278	21761	3.81	-4.23588e-05
278	22687	3.91	-3.58436e-05
278	23620	4.01	-2.98078e-05
278	24546	4.11	-2.42806e-05
278	25472	4.21	-1.9258e-05
278	26398	4.31	-1.47126e-05
278	27324	4.41	-1.06009e-05
278	28250	4.51	-6.86988e-06
278	29176	4.61	-3.46133e-06
278	30102	4.71	-3.15929e-07
278	31028	4.81	2.62407e-06
278	31954	4.91	5.41281e-06
278	32887	5.01	8.09937e-06
278	33963	5.11	1.0727e-05
278	35096	5.21	1.32178e-05
278	36229	5.31	1.5087e-05
278	37362	5.41	1.641e-05
278	38495	5.51	1.7318e-05
278	39628	5.61	1.79197e-05
278	40761	5.71	1.83041e-05
278	41894	5.81	1.85429e-05
278	43028	5.91	1.86933e-05
278	44168	6.01	1.87999e-05
278	45301	6.11	1.88966e-05
278	46434	6.21	1.90084e-05
278	47567	6.31	1.91528e-05
278	48700	6.41	1.93411e-05
278	49833	6.51	1.95798e-05
278	50966	6.61	1.98714e-05
278	52099	6.71	2.0215e-05
278	53232	6.81	2.06078e-05
278	54365	6.91	2.10449e-05
278	55506	7.01	2.15204e-05
278	56639	7.11	2.20277e-05
278	57772	7.21	2.25596e-05
278	58905	7.31	2.3109e-05
278	60038	7.41	2.36687e-05
278	61171	7.51	2.4232e-05
278	62304	7.61	2.47926e-05
278	63437	7.71	2.53447e-05
278	64570	7.81	2.5883e-05
278	65703	7.91	2.64031e-05
278	66843	8.01	2.69009e-05
278	67976	8.11	2.73731e-05
278	69109	8.21	2.78171e-05
278	70242	8.31	2.82307e-05
278	71375	8.41	2.86124e-05
278	72508	8.51	2.8961e-05
278	73641	8.61	2.92759e-05
278	74774	8.71	2.95571e-05
278	75907	8.81	2.98045e-05
278	77040	8.91	3.00186e-05
278	78180	9.01	3.02002e-05
277	633	1.11	5
277	1194	1.21	5
277	1888	1.31	4.99999
277	2623	1.41	4.99997
277	3359	1.51	4.99996
277	4095	1.61	4.99994
277	4830	1.71	4.99992
277	5566	1.81	4.9999
277	6301	1.91	4.99988
277	7043	2.01	4.99986
277	7778	2.11	4.99984
277	8513	2.21	4.99982
277	9248	2.31	4.9998
277	9983	2.41	4.99978
277	10718	2.51	4.99976
277	11453	2.61	4.99975
277	12188	2.71	4.99973
277	12923	2.81	4.99972
277	13658	2.91	4.99971
277	14402	3.01	4.99969
277	15279	3.11	4.99968
277	16205	3.21	4.99967
277	17131	3.31	4.99966
277	18057	3.41	4.99966
277	18983	3.51	4.99965
277	19909	3.61	4.99964
277	20835	3.71	4.99964
277	21761	3.81	4.99963
277	22687	3.91	4.99963
277	23620	4.01	4.99963
277	24546	4.11	4.99962
277	25472	4.21	4.99962
277	26398	4.31	4.99962
277	27324	4.41	4.99962
277	28250	4.51	4.99962
277	29176	4.61	4.99962
277	30102	4.71	4.99962
277	31028	4.81	4.99962
277	31954	4.91	4.99962
277	32887	5.01	4.99962
277	33963	5.11	4.99962
277	35096	5.21	4.99962
277	36229	5.31	4.99962
277	37362	5.41	4.99962
277	38495	5.51	4.99962
277	39628	5.61	4.99963
277	40761	5.71	4.99963
277	41894	5.81	4.99963
277	43028	5.91	4.99963
277	44168	6.01	4.99963
277	45301	6.11	4.99964
277	46434	6.21	4.99964
277	47567	6.31	4.99964
277	48700	6.41	4.99964
277	49833	6.51	4.99964
277	50966	6.61	4.99965
277	52099	6.71	4.99965
277	53232	6.81	4.99965
277	54365	6.91	4.99965
277	55506	7.01	4.99965
277	56639	7.11	4.99966
277	57772	7.21	4.99966
277	58905	7.31	4.99966
277	60038	7.41	4.99966
277	61171	7.51	4.99966
277	62304	7.61	4.99967
277	63437	7.71	4.99967
277	64570	7.81	4.99967
277	65703	7.91	4.99967
277	66843	8.01	4.99968
277	67976	8.11	4.99968
277	69109	8.21	4.99968
277	70242	8.31	4.99969
277	71375	8.41	4.99969
277	72508	8.51	4.99969
277	73641	8.61	4.99969
277	74774	8.71	4.9997
277	75907	8.81	4.9997
277	77040	8.91	4.9997
277	78180	9.01	4.99971
279	633	1.11	1
279	1194	1.21	1
279	1888	1.31	1
279	2623	1.41	1
279	3359	1.51	1
279	4095	1.61	1
279	4830	1.71	1
279	5566	1.81	1
279	6301	1.91	1
279	7043	2.01	1
279	7778	2.11	1
279	8513	2.21	1
279	9248	2.31	1
279	9983	2.41	1
279	10718	2.51	1
279	11453	2.61	1
279	12188	2.71	1
279	12923	2.81	1
279	13658	2.91	1
279	14402	3.01	1
279	15279	3.11	1
279	16205	3.21	1
279	17131	3.31	1
279	18057	3.41	1
279	18983	3.51	1
279	19909	3.61	1
279	20835	3.71	1
279	21761	3.81	1
279	22687	3.91	1
279	23620	4.01	1
279	24546	4.11	1
279	25472	4.21	1
279	26398	4.31	1
279	27324	4.41	1
279	28250	4.51	1
279	29176	4.61	1
279	30102	4.71	1
279	31028	4.81	1
279	31954	4.91	1
279	32887	5.01	1
279	33963	5.11	1
279	35096	5.21	1
279	36229	5.31	1
279	37362	5.41	1
279	38495	5.51	1
279	39628	5.61	1
279	40761	5.71	1
279	41894	5.81	1
279	43028	5.91	1
279	44168	6.01	1
279	45301	6.11	1
279	46434	6.21	1
279	47567	6.31	1
279	48700	6.41	1
279	49833	6.51	1
279	50966	6.61	1
279	52099	6.71	1
279	53232	6.81	1
279	54365	6.91	1
279	55506	7.01	1
279	56639	7.11	1
279	57772	7.21	1
279	58905	7.31	1
279	60038	7.41	1
279	61171	7.51	1
279	62304	7.61	1
279	63437	7.71	1
279	64570	7.81	1
279	65703	7.91	1
279	66843	8.01	1
279	67976	8.11	1
279	69109	8.21	1
279	70242	8.31	1
279	71375	8.41	1
279	72508	8.51	1
279	73641	8.61	1
279	74774	8.71	1
279	75907	8.81	1
279	77040	8.91	1
279	78180	9.01	1
291	1540	1.254671270188	0.100006180125
291	2233	1.354664450313	0.099993180125
291	2969	1.45466672381	0.100002273497
291	3704	1.554668997307	0.100002273497
291	4440	1.654671270804	0.100002273497
291	5176	1.754660544299	0.099989273495
291	5911	1.854662817795	0.100002273496
291	6647	1.95466509129	0.100002273495
291	7388	2.054667364785	0.100002273495
291	8123	2.15466963828	0.100002273495
291	8858	2.254671911775	0.100002273495
291	9593	2.35466118527	0.099989273495
291	10328	2.454663458765	0.100002273495
291	11063	2.55466573226	0.100002273495
291	11798	2.654668005755	0.100002273495
291	12533	2.75467027925	0.100002273495
291	13268	2.854672552745	0.100002273495
291	14003	2.95466182624	0.099989273495
291	14812	3.054664099735	0.100002273495
291	15688	3.15466637323	0.100002273495
291	16614	3.254665073673	0.099998700443
291	17540	3.354663774115	0.099998700442
291	18466	3.454662474555	0.09999870044
291	19392	3.554661174993	0.099998700438
291	20318	3.65467287543	0.100011700437
291	21244	3.754671575866	0.099998700436
291	22170	3.854670276301	0.099998700435
291	23097	3.954668976735	0.099998700434
291	24029	4.054667677167	0.099998700432
291	24955	4.154666377599	0.099998700432
291	25881	4.25466507803	0.099998700431
291	26807	4.354663778458	0.099998700428
291	27733	4.454662478887	0.099998700429
291	28659	4.554661179315	0.099998700428
291	29585	4.654672879743	0.100011700428
291	30511	4.754671580171	0.099998700428
291	31437	4.854670280599	0.099998700428
291	32363	4.954668981026	0.099998700427
291	33361	5.054667681453	0.099998700427
291	34501	5.155248299539	0.100580618086
291	35634	5.255438917625	0.100190618086
291	36767	5.355369535708	0.099930618083
291	37900	5.455326153789	0.099956618081
291	39033	5.555412771869	0.10008661808
291	40166	5.655382389948	0.099969618079
291	41299	5.755404008026	0.100021618078
291	42432	5.855412626103	0.100008618077
291	43566	5.955265244179	0.099852618076
291	44706	6.055390862254	0.100125618075
291	45839	6.155373480329	0.099982618075
291	46972	6.255434098403	0.100060618074
291	48105	6.355325716477	0.099891618074
291	49238	6.45538633455	0.100060618073
291	50371	6.555264952623	0.099878618073
291	51504	6.655429570695	0.100164618072
291	52637	6.755256188767	0.099826618072
291	53770	6.855407806839	0.100151618072
291	54903	6.955338424911	0.099930618072
291	56044	7.055282042983	0.099943618072
291	57177	7.155433661055	0.100151618072
291	58310	7.255442279128	0.100008618073
291	59443	7.355372897201	0.099930618073
291	60576	7.455433515274	0.100060618073
291	61709	7.555338133347	0.099904618073
291	62842	7.65542475142	0.100086618073
291	63975	7.755290369493	0.099865618073
291	65108	7.855337987566	0.100047618073
291	66241	7.955320605639	0.099982618073
291	67381	8.055342223712	0.100021618073
291	68514	8.155285841785	0.099943618073
291	69647	8.255385459858	0.100099618073
291	70780	8.355290077931	0.099904618073
291	71913	8.455246696004	0.099956618073
291	73046	8.555307314077	0.100060618073
291	74179	8.65543293215	0.100125618073
291	75312	8.755246550223	0.099813618073
291	76445	8.855437168296	0.100190618073
291	77578	8.955276786369	0.099839618073
291	78718	9.055441404442	0.100164618073
290	1540	1.254671270188	0.100006180125
290	2233	1.354664450313	0.099993180125
290	2969	1.45466672381	0.100002273497
290	3704	1.554668997307	0.100002273497
290	4440	1.654671270804	0.100002273497
290	5176	1.754660544299	0.099989273495
290	5911	1.854662817795	0.100002273496
290	6647	1.95466509129	0.100002273495
290	7388	2.054667364785	0.100002273495
290	8123	2.15466963828	0.100002273495
290	8858	2.254671911775	0.100002273495
290	9593	2.35466118527	0.099989273495
290	10328	2.454663458765	0.100002273495
290	11063	2.55466573226	0.100002273495
290	11798	2.654668005755	0.100002273495
290	12533	2.75467027925	0.100002273495
290	13268	2.854672552745	0.100002273495
290	14003	2.95466182624	0.099989273495
290	14812	3.054664099735	0.100002273495
290	15688	3.15466637323	0.100002273495
290	16614	3.254665073673	0.099998700443
290	17540	3.354663774115	0.099998700442
290	18466	3.454662474555	0.09999870044
290	19392	3.554661174993	0.099998700438
290	20318	3.65467287543	0.100011700437
290	21244	3.754671575866	0.099998700436
290	22170	3.854670276301	0.099998700435
290	23097	3.954668976735	0.099998700434
290	24029	4.054667677167	0.099998700432
290	24955	4.154666377599	0.099998700432
290	25881	4.25466507803	0.099998700431
290	26807	4.354663778458	0.099998700428
290	27733	4.454662478887	0.099998700429
290	28659	4.554661179315	0.099998700428
290	29585	4.654672879743	0.100011700428
290	30511	4.754671580171	0.099998700428
290	31437	4.854670280599	0.099998700428
290	32363	4.954668981026	0.099998700427
290	33361	5.054667681453	0.099998700427
290	34501	5.155248299539	0.100580618086
290	35634	5.255438917625	0.100190618086
290	36767	5.355369535708	0.099930618083
290	37900	5.455326153789	0.099956618081
290	39033	5.555412771869	0.10008661808
290	40166	5.655382389948	0.099969618079
290	41299	5.755404008026	0.100021618078
290	42432	5.855412626103	0.100008618077
290	43566	5.955265244179	0.099852618076
290	44706	6.055390862254	0.100125618075
290	45839	6.155373480329	0.099982618075
290	46972	6.255434098403	0.100060618074
290	48105	6.355325716477	0.099891618074
290	49238	6.45538633455	0.100060618073
290	50371	6.555264952623	0.099878618073
290	51504	6.655429570695	0.100164618072
290	52637	6.755256188767	0.099826618072
290	53770	6.855407806839	0.100151618072
290	54903	6.955338424911	0.099930618072
290	56044	7.055282042983	0.099943618072
290	57177	7.155433661055	0.100151618072
290	58310	7.255442279128	0.100008618073
290	59443	7.355372897201	0.099930618073
290	60576	7.455433515274	0.100060618073
290	61709	7.555338133347	0.099904618073
290	62842	7.65542475142	0.100086618073
290	63975	7.755290369493	0.099865618073
290	65108	7.855337987566	0.100047618073
290	66241	7.955320605639	0.099982618073
290	67381	8.055342223712	0.100021618073
290	68514	8.155285841785	0.099943618073
290	69647	8.255385459858	0.100099618073
290	70780	8.355290077931	0.099904618073
290	71913	8.455246696004	0.099956618073
290	73046	8.555307314077	0.100060618073
290	74179	8.65543293215	0.100125618073
290	75312	8.755246550223	0.099813618073
290	76445	8.855437168296	0.100190618073
290	77578	8.955276786369	0.099839618073
290	78718	9.055441404442	0.100164618073
289	1540	1.254671270188	1
289	2233	1.354664450313	1
289	2969	1.45466672381	1
289	3704	1.554668997307	1
289	4440	1.654671270804	1
289	5176	1.754660544299	1
289	5911	1.854662817795	1
289	6647	1.95466509129	1
289	7388	2.054667364785	1
289	8123	2.15466963828	1
289	8858	2.254671911775	1
289	9593	2.35466118527	1
289	10328	2.454663458765	1
289	11063	2.55466573226	1
289	11798	2.654668005755	1
289	12533	2.75467027925	1
289	13268	2.854672552745	1
289	14003	2.95466182624	1
289	14812	3.054664099735	1
289	15688	3.15466637323	1
289	16614	3.254665073673	1
289	17540	3.354663774115	1
289	18466	3.454662474555	1
289	19392	3.554661174993	1
289	20318	3.65467287543	1
289	21244	3.754671575866	1
289	22170	3.854670276301	1
289	23097	3.954668976735	1
289	24029	4.054667677167	1
289	24955	4.154666377599	1
289	25881	4.25466507803	1
289	26807	4.354663778458	1
289	27733	4.454662478887	1
289	28659	4.554661179315	1
289	29585	4.654672879743	1
289	30511	4.754671580171	1
289	31437	4.854670280599	1
289	32363	4.954668981026	1
289	33361	5.054667681453	1
289	34501	5.155248299539	1
289	35634	5.255438917625	1
289	36767	5.355369535708	1
289	37900	5.455326153789	1
289	39033	5.555412771869	1
289	40166	5.655382389948	1
289	41299	5.755404008026	1
289	42432	5.855412626103	1
289	43566	5.955265244179	1
289	44706	6.055390862254	1
289	45839	6.155373480329	1
289	46972	6.255434098403	1
289	48105	6.355325716477	1
289	49238	6.45538633455	1
289	50371	6.555264952623	1
289	51504	6.655429570695	1
289	52637	6.755256188767	1
289	53770	6.855407806839	1
289	54903	6.955338424911	1
289	56044	7.055282042983	1
289	57177	7.155433661055	1
289	58310	7.255442279128	1
289	59443	7.355372897201	1
289	60576	7.455433515274	1
289	61709	7.555338133347	1
289	62842	7.65542475142	1
289	63975	7.755290369493	1
289	65108	7.855337987566	1
289	66241	7.955320605639	1
289	67381	8.055342223712	1
289	68514	8.155285841785	1
289	69647	8.255385459858	1
289	70780	8.355290077931	1
289	71913	8.455246696004	1
289	73046	8.555307314077	1
289	74179	8.65543293215	1
289	75312	8.755246550223	1
289	76445	8.855437168296	1
289	77578	8.955276786369	1
289	78718	9.055441404442	1
288	1540	1.254671270188	1
288	2233	1.354664450313	1
288	2969	1.45466672381	1
288	3704	1.554668997307	1
288	4440	1.654671270804	1
288	5176	1.754660544299	1
288	5911	1.854662817795	1
288	6647	1.95466509129	1
288	7388	2.054667364785	1
288	8123	2.15466963828	1
288	8858	2.254671911775	1
288	9593	2.35466118527	1
288	10328	2.454663458765	1
288	11063	2.55466573226	1
288	11798	2.654668005755	1
288	12533	2.75467027925	1
288	13268	2.854672552745	1
288	14003	2.95466182624	1
288	14812	3.054664099735	1
288	15688	3.15466637323	1
288	16614	3.254665073673	1
288	17540	3.354663774115	1
288	18466	3.454662474555	1
288	19392	3.554661174993	1
288	20318	3.65467287543	1
288	21244	3.754671575866	1
288	22170	3.854670276301	1
288	23097	3.954668976735	1
288	24029	4.054667677167	1
288	24955	4.154666377599	1
288	25881	4.25466507803	1
288	26807	4.354663778458	1
288	27733	4.454662478887	1
288	28659	4.554661179315	1
288	29585	4.654672879743	1
288	30511	4.754671580171	1
288	31437	4.854670280599	1
288	32363	4.954668981026	1
288	33361	5.054667681453	1
288	34501	5.155248299539	1
288	35634	5.255438917625	1
288	36767	5.355369535708	1
288	37900	5.455326153789	1
288	39033	5.555412771869	1
288	40166	5.655382389948	1
288	41299	5.755404008026	1
288	42432	5.855412626103	1
288	43566	5.955265244179	1
288	44706	6.055390862254	1
288	45839	6.155373480329	1
288	46972	6.255434098403	1
288	48105	6.355325716477	1
288	49238	6.45538633455	1
288	50371	6.555264952623	1
288	51504	6.655429570695	1
288	52637	6.755256188767	1
288	53770	6.855407806839	1
288	54903	6.955338424911	1
288	56044	7.055282042983	1
288	57177	7.155433661055	1
288	58310	7.255442279128	1
288	59443	7.355372897201	1
288	60576	7.455433515274	1
288	61709	7.555338133347	1
288	62842	7.65542475142	1
288	63975	7.755290369493	1
288	65108	7.855337987566	1
288	66241	7.955320605639	1
288	67381	8.055342223712	1
288	68514	8.155285841785	1
288	69647	8.255385459858	1
288	70780	8.355290077931	1
288	71913	8.455246696004	1
288	73046	8.555307314077	1
288	74179	8.65543293215	1
288	75312	8.755246550223	1
288	76445	8.855437168296	1
288	77578	8.955276786369	1
288	78718	9.055441404442	1
287	6943	2	0
287	14303	3	0
287	23452	4	0
287	32719	5	0
287	43973	6	0
287	55311	7	0
287	66648	8	0
287	77985	9	0
286	6943	2	0.020841
286	14303	3	0.02481
286	23452	4	0.028778
286	32719	5	0.02977
286	43973	6	0.034234
286	55311	7	0.03473
286	66648	8	0.03473
286	77985	9	0.03473
285	6943	2	1
285	14303	3	1
285	23452	4	1
285	32719	5	1
285	43973	6	1
285	55311	7	1
285	66648	8	1
285	77985	9	1
307	634	1.11	0
307	1195	1.21	-0.0010837
307	1889	1.31	-0.00214672
307	2624	1.41	-0.00210899
307	3360	1.51	-0.00199895
307	4096	1.61	-0.00188684
307	4831	1.71	-0.00179156
307	5567	1.81	-0.00166078
307	6302	1.91	-0.00151097
307	7044	2.01	-0.00139783
307	7779	2.11	-0.00123575
307	8514	2.21	-0.00108868
307	9249	2.31	-0.000989758
307	9984	2.41	-0.00085101
307	10719	2.51	-0.000724237
307	11454	2.61	-0.000610726
307	12189	2.71	-0.000511245
307	12924	2.81	-0.000426122
307	13659	2.91	-0.000355318
307	14403	3.01	-0.000288496
307	15280	3.11	-0.000195139
307	16206	3.21	-0.000154903
307	17132	3.31	-0.000116852
307	18058	3.41	-7.02455e-05
307	18984	3.51	-1.41506e-05
307	19910	3.61	2.25504e-06
307	20836	3.71	2.98845e-05
307	21762	3.81	3.95301e-05
307	22688	3.91	6.22894e-05
307	23621	4.01	4.90476e-05
307	24547	4.11	6.06845e-05
307	25473	4.21	6.78939e-05
307	26399	4.31	7.13348e-05
307	27325	4.41	7.1629e-05
307	28251	4.51	6.93546e-05
307	29177	4.61	6.50405e-05
307	30103	4.71	5.91649e-05
307	31029	4.81	5.21533e-05
307	31955	4.91	4.43795e-05
307	32888	5.01	3.61673e-05
307	33964	5.11	2.77922e-05
307	35097	5.21	2.94768e-05
307	36230	5.31	4.1408e-05
307	37363	5.41	3.34504e-05
307	38496	5.51	2.57147e-05
307	39629	5.61	4.82812e-05
307	40762	5.71	4.11226e-05
307	41895	5.81	3.43465e-05
307	43029	5.91	2.80357e-05
307	44169	6.01	2.22463e-05
307	45302	6.11	1.70112e-05
307	46435	6.21	1.23447e-05
307	47568	6.31	8.24563e-06
307	48701	6.41	4.70057e-06
307	49834	6.51	1.68648e-06
307	50967	6.61	-8.26876e-07
307	52100	6.71	-2.87487e-06
307	53233	6.81	-4.49631e-06
307	54366	6.91	-5.73189e-06
307	55507	7.01	-6.62304e-06
307	56640	7.11	-7.2109e-06
307	57773	7.21	-7.53549e-06
307	58906	7.31	-7.63512e-06
307	60039	7.41	-7.54595e-06
307	61172	7.51	-7.30156e-06
307	62305	7.61	-6.93285e-06
307	63438	7.71	-6.46777e-06
307	64571	7.81	-5.93142e-06
307	65704	7.91	-5.34602e-06
307	66844	8.01	-4.73093e-06
307	67977	8.11	-4.10284e-06
307	69110	8.21	-3.47592e-06
307	70243	8.31	-2.86194e-06
307	71376	8.41	-2.27049e-06
307	72509	8.51	-1.70918e-06
307	73642	8.61	-1.18382e-06
307	74775	8.71	-6.98634e-07
307	75908	8.81	-2.56443e-07
307	77041	8.91	1.41127e-07
307	78181	9.01	4.93522e-07
306	634	1.11	0
306	1195	1.21	-0.000102108
306	1889	1.31	-0.000435534
306	2624	1.41	-0.000739604
306	3360	1.51	-0.000972324
306	4096	1.61	-0.00114363
306	4831	1.71	-0.00126629
306	5567	1.81	-0.00134531
306	6302	1.91	-0.0013834
306	7044	2.01	-0.00139361
306	7779	2.11	-0.0013744
306	8514	2.21	-0.00133105
306	9249	2.31	-0.00127644
306	9984	2.41	-0.00120781
306	10719	2.51	-0.00112807
306	11454	2.61	-0.00104154
306	12189	2.71	-0.000951945
306	12924	2.81	-0.000862388
306	13659	2.91	-0.000775446
306	14403	3.01	-0.000692238
306	15280	3.11	-0.000607304
306	16206	3.21	-0.000528914
306	17132	3.31	-0.000456951
306	18058	3.41	-0.000390138
306	18984	3.51	-0.000325369
306	19910	3.61	-0.000267798
306	20836	3.71	-0.000215301
306	21762	3.81	-0.000170286
306	22688	3.91	-0.000129579
306	23621	4.01	-9.72666e-05
306	24547	4.11	-6.94065e-05
306	25473	4.21	-4.50354e-05
306	26399	4.31	-2.42373e-05
306	27325	4.41	-6.96729e-06
306	28251	4.51	6.91755e-06
306	29177	4.61	1.76322e-05
306	30103	4.71	2.54414e-05
306	31029	4.81	3.06416e-05
306	31955	4.91	3.35459e-05
306	32888	5.01	3.44717e-05
306	33964	5.11	3.37316e-05
306	35097	5.21	3.25678e-05
306	36230	5.31	3.39312e-05
306	37363	5.41	3.42692e-05
306	38496	5.51	3.31379e-05
306	39629	5.61	3.52525e-05
306	40762	5.71	3.66814e-05
306	41895	5.81	3.66165e-05
306	43029	5.91	3.54056e-05
306	44169	6.01	3.33453e-05
306	45302	6.11	3.06863e-05
306	46435	6.21	2.76375e-05
306	47568	6.31	2.43709e-05
306	48701	6.41	2.1026e-05
306	49834	6.51	1.77134e-05
306	50967	6.61	1.45187e-05
306	52100	6.71	1.15064e-05
306	53233	6.81	8.72211e-06
306	54366	6.91	6.1964e-06
306	55507	7.01	3.94678e-06
306	56640	7.11	1.98023e-06
306	57773	7.21	2.95251e-07
306	58906	7.31	-1.11639e-06
306	60039	7.41	-2.26804e-06
306	61172	7.51	-3.17682e-06
306	62305	7.61	-3.86247e-06
306	63438	7.71	-4.34633e-06
306	64571	7.81	-4.6506e-06
306	65704	7.91	-4.79761e-06
306	66844	8.01	-4.80931e-06
306	67977	8.11	-4.70683e-06
306	69110	8.21	-4.51019e-06
306	70243	8.31	-4.23805e-06
306	71376	8.41	-3.90755e-06
306	72509	8.51	-3.53421e-06
306	73642	8.61	-3.1319e-06
306	74775	8.71	-2.71285e-06
306	75908	8.81	-2.28766e-06
306	77041	8.91	-1.86538e-06
306	78181	9.01	-1.45357e-06
305	634	1.11	242.45
305	1195	1.21	242.45
305	1889	1.31	242.45
305	2624	1.41	242.45
305	3360	1.51	242.45
305	4096	1.61	242.45
305	4831	1.71	242.45
305	5567	1.81	242.45
305	6302	1.91	242.45
305	7044	2.01	242.45
305	7779	2.11	242.45
305	8514	2.21	242.45
305	9249	2.31	242.45
305	9984	2.41	242.45
305	10719	2.51	242.45
305	11454	2.61	242.45
305	12189	2.71	242.45
305	12924	2.81	242.45
305	13659	2.91	242.45
305	14403	3.01	242.45
305	15280	3.11	242.45
305	16206	3.21	242.45
305	17132	3.31	242.45
305	18058	3.41	242.45
305	18984	3.51	242.45
305	19910	3.61	242.45
305	20836	3.71	242.45
305	21762	3.81	242.45
305	22688	3.91	242.45
305	23621	4.01	242.45
305	24547	4.11	242.45
305	25473	4.21	242.45
305	26399	4.31	242.45
305	27325	4.41	242.45
305	28251	4.51	242.45
305	29177	4.61	242.45
305	30103	4.71	242.45
305	31029	4.81	242.45
305	31955	4.91	242.45
305	32888	5.01	242.45
305	33964	5.11	242.45
305	35097	5.21	242.45
305	36230	5.31	242.45
305	37363	5.41	242.45
305	38496	5.51	242.45
305	39629	5.61	242.45
305	40762	5.71	242.45
305	41895	5.81	242.45
305	43029	5.91	242.45
305	44169	6.01	242.45
305	45302	6.11	242.45
305	46435	6.21	242.45
305	47568	6.31	242.45
305	48701	6.41	242.45
305	49834	6.51	242.45
305	50967	6.61	242.45
305	52100	6.71	242.45
305	53233	6.81	242.45
305	54366	6.91	242.45
305	55507	7.01	242.45
305	56640	7.11	242.45
305	57773	7.21	242.45
305	58906	7.31	242.45
305	60039	7.41	242.45
305	61172	7.51	242.45
305	62305	7.61	242.45
305	63438	7.71	242.45
305	64571	7.81	242.45
305	65704	7.91	242.45
305	66844	8.01	242.45
305	67977	8.11	242.45
305	69110	8.21	242.45
305	70243	8.31	242.45
305	71376	8.41	242.45
305	72509	8.51	242.45
305	73642	8.61	242.45
305	74775	8.71	242.45
305	75908	8.81	242.45
305	77041	8.91	242.45
305	78181	9.01	242.45
304	634	1.11	19.9402
304	1195	1.21	22.7182
304	1889	1.31	25.4962
304	2624	1.41	28.2742
304	3360	1.51	31.0522
304	4096	1.61	33.8302
304	4831	1.71	36.6081
304	5567	1.81	39.3861
304	6302	1.91	42.164
304	7044	2.01	44.9419
304	7779	2.11	47.7199
304	8514	2.21	50.4977
304	9249	2.31	53.2756
304	9984	2.41	56.0535
304	10719	2.51	58.8314
304	11454	2.61	61.6092
304	12189	2.71	64.3871
304	12924	2.81	67.1649
304	13659	2.91	69.9427
304	14403	3.01	72.7205
304	15280	3.11	75.4983
304	16206	3.21	78.2761
304	17132	3.31	81.0539
304	18058	3.41	83.8317
304	18984	3.51	86.6095
304	19910	3.61	89.3873
304	20836	3.71	92.165
304	21762	3.81	94.9428
304	22688	3.91	97.7206
304	23621	4.01	100.498
304	24547	4.11	103.276
304	25473	4.21	106.054
304	26399	4.31	108.832
304	27325	4.41	111.609
304	28251	4.51	114.387
304	29177	4.61	117.165
304	30103	4.71	119.943
304	31029	4.81	122.721
304	31955	4.91	125.498
304	32888	5.01	128.276
304	33964	5.11	131.054
304	35097	5.21	133.832
304	36230	5.31	136.609
304	37363	5.41	139.387
304	38496	5.51	142.165
304	39629	5.61	144.943
304	40762	5.71	147.721
304	41895	5.81	150.498
304	43029	5.91	153.276
304	44169	6.01	156.054
304	45302	6.11	158.832
304	46435	6.21	161.609
304	47568	6.31	164.387
304	48701	6.41	167.165
304	49834	6.51	169.943
304	50967	6.61	172.721
304	52100	6.71	175.498
304	53233	6.81	178.276
304	54366	6.91	181.054
304	55507	7.01	183.832
304	56640	7.11	186.609
304	57773	7.21	189.387
304	58906	7.31	192.165
304	60039	7.41	194.943
304	61172	7.51	197.721
304	62305	7.61	200.498
304	63438	7.71	203.276
304	64571	7.81	206.054
304	65704	7.91	208.832
304	66844	8.01	211.609
304	67977	8.11	214.387
304	69110	8.21	217.165
304	70243	8.31	219.943
304	71376	8.41	222.721
304	72509	8.51	225.498
304	73642	8.61	228.276
304	74775	8.71	231.054
304	75908	8.81	233.832
304	77041	8.91	236.609
304	78181	9.01	239.387
303	634	1.11	27.78
303	1195	1.21	27.78
303	1889	1.31	27.78
303	2624	1.41	27.7799
303	3360	1.51	27.7798
303	4096	1.61	27.7797
303	4831	1.71	27.7796
303	5567	1.81	27.7795
303	6302	1.91	27.7793
303	7044	2.01	27.7792
303	7779	2.11	27.779
303	8514	2.21	27.7789
303	9249	2.31	27.7788
303	9984	2.41	27.7787
303	10719	2.51	27.7785
303	11454	2.61	27.7784
303	12189	2.71	27.7783
303	12924	2.81	27.7782
303	13659	2.91	27.7782
303	14403	3.01	27.7781
303	15280	3.11	27.778
303	16206	3.21	27.778
303	17132	3.31	27.7779
303	18058	3.41	27.7779
303	18984	3.51	27.7778
303	19910	3.61	27.7778
303	20836	3.71	27.7778
303	21762	3.81	27.7778
303	22688	3.91	27.7778
303	23621	4.01	27.7777
303	24547	4.11	27.7777
303	25473	4.21	27.7777
303	26399	4.31	27.7777
303	27325	4.41	27.7777
303	28251	4.51	27.7777
303	29177	4.61	27.7777
303	30103	4.71	27.7777
303	31029	4.81	27.7777
303	31955	4.91	27.7777
303	32888	5.01	27.7777
303	33964	5.11	27.7777
303	35097	5.21	27.7777
303	36230	5.31	27.7777
303	37363	5.41	27.7778
303	38496	5.51	27.7778
303	39629	5.61	27.7778
303	40762	5.71	27.7778
303	41895	5.81	27.7778
303	43029	5.91	27.7778
303	44169	6.01	27.7778
303	45302	6.11	27.7778
303	46435	6.21	27.7778
303	47568	6.31	27.7778
303	48701	6.41	27.7778
303	49834	6.51	27.7778
303	50967	6.61	27.7778
303	52100	6.71	27.7778
303	53233	6.81	27.7778
303	54366	6.91	27.7778
303	55507	7.01	27.7778
303	56640	7.11	27.7778
303	57773	7.21	27.7778
303	58906	7.31	27.7778
303	60039	7.41	27.7778
303	61172	7.51	27.7778
303	62305	7.61	27.7778
303	63438	7.71	27.7778
303	64571	7.81	27.7778
303	65704	7.91	27.7778
303	66844	8.01	27.7778
303	67977	8.11	27.7778
303	69110	8.21	27.7778
303	70243	8.31	27.7778
303	71376	8.41	27.7778
303	72509	8.51	27.7778
303	73642	8.61	27.7778
303	74775	8.71	27.7778
303	75908	8.81	27.7778
303	77041	8.91	27.7778
303	78181	9.01	27.7778
301	634	1.11	0
301	1195	1.21	-3.11046e-06
301	1889	1.31	-1.60333e-05
301	2624	1.41	-2.6551e-05
301	3360	1.51	-3.46454e-05
301	4096	1.61	-4.07777e-05
301	4831	1.71	-4.50243e-05
301	5567	1.81	-4.76084e-05
301	6302	1.91	-4.87738e-05
301	7044	2.01	-4.8937e-05
301	7779	2.11	-4.7919e-05
301	8514	2.21	-4.61824e-05
301	9249	2.31	-4.41075e-05
301	9984	2.41	-4.14367e-05
301	10719	2.51	-3.84454e-05
301	11454	2.61	-3.53514e-05
301	12189	2.71	-3.23091e-05
301	12924	2.81	-2.94161e-05
301	13659	2.91	-2.67197e-05
301	14403	3.01	-2.41384e-05
301	15280	3.11	-2.15918e-05
301	16206	3.21	-1.94626e-05
301	17132	3.31	-1.73529e-05
301	18058	3.41	-1.54505e-05
301	18984	3.51	-1.37735e-05
301	19910	3.61	-1.2277e-05
301	20836	3.71	-1.08562e-05
301	21762	3.81	-9.90707e-06
301	22688	3.91	-9.29382e-06
301	23621	4.01	-8.84794e-06
301	24547	4.11	-8.28639e-06
301	25473	4.21	-7.68827e-06
301	26399	4.31	-7.10942e-06
301	27325	4.41	-6.583e-06
301	28251	4.51	-6.12511e-06
301	29177	4.61	-5.73935e-06
301	30103	4.71	-5.42062e-06
301	31029	4.81	-5.15815e-06
301	31955	4.91	-4.93794e-06
301	32888	5.01	-4.74456e-06
301	33964	5.11	-4.56262e-06
301	35097	5.21	-4.29178e-06
301	36230	5.31	-3.668e-06
301	37363	5.41	-2.91533e-06
301	38496	5.51	-2.04944e-06
301	39629	5.61	-1.28158e-06
301	40762	5.71	-9.12916e-07
301	41895	5.81	-8.61147e-07
301	43029	5.91	-1.05202e-06
301	44169	6.01	-1.42369e-06
301	45302	6.11	-1.92522e-06
301	46435	6.21	-2.51514e-06
301	47568	6.31	-3.16014e-06
301	48701	6.41	-3.83395e-06
301	49834	6.51	-4.51622e-06
301	50967	6.61	-5.19161e-06
301	52100	6.71	-5.84894e-06
301	53233	6.81	-6.48041e-06
301	54366	6.91	-7.08101e-06
301	55507	7.01	-7.64789e-06
301	56640	7.11	-8.17996e-06
301	57773	7.21	-8.67738e-06
301	58906	7.31	-9.1413e-06
301	60039	7.41	-9.5735e-06
301	61172	7.51	-9.97622e-06
301	62305	7.61	-1.03519e-05
301	63438	7.71	-1.07031e-05
301	64571	7.81	-1.10323e-05
301	65704	7.91	-1.13419e-05
301	66844	8.01	-1.16341e-05
301	67977	8.11	-1.19108e-05
301	69110	8.21	-1.21738e-05
301	70243	8.31	-1.24244e-05
301	71376	8.41	-1.26639e-05
301	72509	8.51	-1.28932e-05
301	73642	8.61	-1.3113e-05
301	74775	8.71	-1.33236e-05
301	75908	8.81	-1.35253e-05
301	77041	8.91	-1.37183e-05
301	78181	9.01	-1.39024e-05
300	634	1.11	5
300	1195	1.21	5
300	1889	1.31	5
300	2624	1.41	5
300	3360	1.51	4.99999
300	4096	1.61	4.99999
300	4831	1.71	4.99999
300	5567	1.81	4.99998
300	6302	1.91	4.99998
300	7044	2.01	4.99997
300	7779	2.11	4.99997
300	8514	2.21	4.99996
300	9249	2.31	4.99996
300	9984	2.41	4.99995
300	10719	2.51	4.99995
300	11454	2.61	4.99995
300	12189	2.71	4.99994
300	12924	2.81	4.99994
300	13659	2.91	4.99994
300	14403	3.01	4.99993
300	15280	3.11	4.99993
300	16206	3.21	4.99993
300	17132	3.31	4.99993
300	18058	3.41	4.99993
300	18984	3.51	4.99992
300	19910	3.61	4.99992
300	20836	3.71	4.99992
300	21762	3.81	4.99992
300	22688	3.91	4.99992
300	23621	4.01	4.99992
300	24547	4.11	4.99992
300	25473	4.21	4.99992
300	26399	4.31	4.99992
300	27325	4.41	4.99992
300	28251	4.51	4.99992
300	29177	4.61	4.99991
300	30103	4.71	4.99991
300	31029	4.81	4.99991
300	31955	4.91	4.99991
300	32888	5.01	4.99991
300	33964	5.11	4.99991
300	35097	5.21	4.99991
300	36230	5.31	4.99991
300	37363	5.41	4.99991
300	38496	5.51	4.99991
300	39629	5.61	4.99991
300	40762	5.71	4.99991
300	41895	5.81	4.99991
300	43029	5.91	4.99991
300	44169	6.01	4.99991
300	45302	6.11	4.99991
300	46435	6.21	4.99991
300	47568	6.31	4.99991
300	48701	6.41	4.99991
300	49834	6.51	4.99991
300	50967	6.61	4.99991
300	52100	6.71	4.99991
300	53233	6.81	4.99991
300	54366	6.91	4.99991
300	55507	7.01	4.99991
300	56640	7.11	4.9999
300	57773	7.21	4.9999
300	58906	7.31	4.9999
300	60039	7.41	4.9999
300	61172	7.51	4.9999
300	62305	7.61	4.9999
300	63438	7.71	4.9999
300	64571	7.81	4.9999
300	65704	7.91	4.9999
300	66844	8.01	4.9999
300	67977	8.11	4.99989
300	69110	8.21	4.99989
300	70243	8.31	4.99989
300	71376	8.41	4.99989
300	72509	8.51	4.99989
300	73642	8.61	4.99989
300	74775	8.71	4.99989
300	75908	8.81	4.99989
300	77041	8.91	4.99988
300	78181	9.01	4.99988
302	634	1.11	2
302	1195	1.21	2
302	1889	1.31	2
302	2624	1.41	2
302	3360	1.51	2
302	4096	1.61	2
302	4831	1.71	2
302	5567	1.81	2
302	6302	1.91	2
302	7044	2.01	2
302	7779	2.11	2
302	8514	2.21	2
302	9249	2.31	2
302	9984	2.41	2
302	10719	2.51	2
302	11454	2.61	2
302	12189	2.71	2
302	12924	2.81	2
302	13659	2.91	2
302	14403	3.01	2
302	15280	3.11	2
302	16206	3.21	2
302	17132	3.31	2
302	18058	3.41	2
302	18984	3.51	2
302	19910	3.61	2
302	20836	3.71	2
302	21762	3.81	2
302	22688	3.91	2
302	23621	4.01	2
302	24547	4.11	2
302	25473	4.21	2
302	26399	4.31	2
302	27325	4.41	2
302	28251	4.51	2
302	29177	4.61	2
302	30103	4.71	2
302	31029	4.81	2
302	31955	4.91	2
302	32888	5.01	2
302	33964	5.11	2
302	35097	5.21	2
302	36230	5.31	2
302	37363	5.41	2
302	38496	5.51	2
302	39629	5.61	2
302	40762	5.71	2
302	41895	5.81	2
302	43029	5.91	2
302	44169	6.01	2
302	45302	6.11	2
302	46435	6.21	2
302	47568	6.31	2
302	48701	6.41	2
302	49834	6.51	2
302	50967	6.61	2
302	52100	6.71	2
302	53233	6.81	2
302	54366	6.91	2
302	55507	7.01	2
302	56640	7.11	2
302	57773	7.21	2
302	58906	7.31	2
302	60039	7.41	2
302	61172	7.51	2
302	62305	7.61	2
302	63438	7.71	2
302	64571	7.81	2
302	65704	7.91	2
302	66844	8.01	2
302	67977	8.11	2
302	69110	8.21	2
302	70243	8.31	2
302	71376	8.41	2
302	72509	8.51	2
302	73642	8.61	2
302	74775	8.71	2
302	75908	8.81	2
302	77041	8.91	2
302	78181	9.01	2
314	1373	1.229832240167	0.100006180125
314	2066	1.329825420292	0.099993180125
314	2802	1.429827693789	0.100002273497
314	3537	1.529829967286	0.100002273497
314	4273	1.629832240783	0.100002273497
314	5008	1.72982151428	0.099989273497
314	5744	1.829823787776	0.100002273496
314	6479	1.929826061271	0.100002273495
314	7221	2.029828334766	0.100002273495
314	7956	2.129830608261	0.100002273495
314	8691	2.229832881756	0.100002273495
314	9426	2.329822155251	0.099989273495
314	10161	2.429824428746	0.100002273495
314	10896	2.529826702241	0.100002273495
314	11631	2.629828975736	0.100002273495
314	12366	2.729831249231	0.100002273495
314	13101	2.829820522726	0.099989273495
314	13836	2.929822796221	0.100002273495
314	14612	3.029825069716	0.100002273495
314	15488	3.129827343211	0.100002273495
314	16414	3.229826043654	0.099998700443
314	17340	3.329824744096	0.099998700442
314	18266	3.429823444536	0.09999870044
314	19192	3.529822144974	0.099998700438
314	20118	3.629820845411	0.099998700437
314	21044	3.729832545847	0.100011700436
314	21970	3.829831246282	0.099998700435
314	22896	3.929829946716	0.099998700434
314	23829	4.029828647147	0.099998700431
314	24755	4.129827347579	0.099998700432
314	25681	4.22982604801	0.099998700431
314	26607	4.32982474844	0.09999870043
314	27533	4.429823448869	0.099998700429
314	28459	4.529822149297	0.099998700428
314	29385	4.629820849725	0.099998700428
314	30311	4.729832550153	0.100011700428
314	31237	4.829831250581	0.099998700428
314	32163	4.929829951008	0.099998700427
314	33128	5.029828651435	0.099998700427
314	34203	5.129827351862	0.099998700427
314	35336	5.229822969948	0.099995618086
314	36469	5.329831588033	0.100008618085
314	37602	5.429827206116	0.099995618083
314	38735	5.529822824197	0.099995618081
314	39868	5.629831442277	0.10000861808
314	41001	5.729827060356	0.099995618079
314	42134	5.829822678434	0.099995618078
314	43268	5.929831296511	0.100008618077
314	44408	6.029826914587	0.099995618076
314	45541	6.129822532662	0.099995618075
314	46674	6.229831150737	0.100008618075
314	47807	6.329826768811	0.099995618074
314	48940	6.429822386885	0.099995618074
314	50073	6.529831004958	0.100008618073
314	51206	6.629826623031	0.099995618073
314	52339	6.729822241103	0.099995618072
314	53472	6.829830859175	0.100008618072
314	54605	6.929826477247	0.099995618072
314	55746	7.029822095319	0.099995618072
314	56879	7.129830713391	0.100008618072
314	58012	7.229826331464	0.099995618073
314	59145	7.329821949537	0.099995618073
314	60278	7.42983056761	0.100008618073
314	61411	7.529826185683	0.099995618073
314	62544	7.629821803756	0.099995618073
314	63677	7.729830421829	0.100008618073
314	64810	7.829826039902	0.099995618073
314	65943	7.929821657975	0.099995618073
314	67083	8.029830276048	0.100008618073
314	68216	8.129825894121	0.099995618073
314	69349	8.229821512194	0.099995618073
314	70482	8.329830130267	0.100008618073
314	71615	8.42982574834	0.099995618073
314	72748	8.529821366413	0.099995618073
314	73881	8.629829984486	0.100008618073
314	75014	8.729825602559	0.099995618073
314	76147	8.829821220632	0.099995618073
314	77280	8.929829838705	0.100008618073
314	78420	9.029825456778	0.099995618073
313	1546	1.254671300209	0.100006180125
313	2239	1.354664480333	0.099993180124
313	2975	1.45466675383	0.100002273497
313	3710	1.554669027327	0.100002273497
313	4446	1.654671300824	0.100002273497
313	5182	1.75466057432	0.099989273496
313	5917	1.854662847816	0.100002273496
313	6653	1.954665121311	0.100002273495
313	7394	2.054667394806	0.100002273495
313	8129	2.154669668301	0.100002273495
313	8864	2.254671941796	0.100002273495
313	9599	2.354661215291	0.099989273495
313	10334	2.454663488786	0.100002273495
313	11069	2.554665762281	0.100002273495
313	11804	2.654668035775	0.100002273494
313	12539	2.75467030927	0.100002273495
313	13274	2.854672582765	0.100002273495
313	14009	2.95466185626	0.099989273495
313	14818	3.054664129755	0.100002273495
313	15694	3.15466640325	0.100002273495
313	16620	3.254665103693	0.099998700443
313	17546	3.354663804135	0.099998700442
313	18472	3.454662504575	0.09999870044
313	19398	3.554661205013	0.099998700438
313	20324	3.65467290545	0.100011700437
313	21250	3.754671605886	0.099998700436
313	22176	3.854670306321	0.099998700435
313	23103	3.954669006755	0.099998700434
313	24035	4.054667707187	0.099998700432
313	24961	4.154666407619	0.099998700432
313	25887	4.25466510805	0.099998700431
313	26813	4.354663808479	0.099998700429
313	27739	4.454662508908	0.099998700429
313	28665	4.554661209336	0.099998700428
313	29591	4.654672909764	0.100011700428
313	30517	4.754671610192	0.099998700428
313	31443	4.85467031062	0.099998700428
313	32369	4.954669011047	0.099998700427
313	33367	5.054667711474	0.099998700427
313	34507	5.15524832956	0.100580618086
313	35640	5.255438947645	0.100190618085
313	36773	5.355369565728	0.099930618083
313	37906	5.455326183809	0.099956618081
313	39039	5.555412801889	0.10008661808
313	40172	5.655382419968	0.099969618079
313	41305	5.755404038046	0.100021618078
313	42438	5.855412656123	0.100008618077
313	43572	5.955265274199	0.099852618076
313	44712	6.055390892274	0.100125618075
313	45845	6.155373510349	0.099982618075
313	46978	6.255434128423	0.100060618074
313	48111	6.355325746497	0.099891618074
313	49244	6.45538636457	0.100060618073
313	50377	6.555264982643	0.099878618073
313	51510	6.655429600715	0.100164618072
313	52643	6.755256218787	0.099826618072
313	53776	6.855407836859	0.100151618072
313	54909	6.955338454931	0.099930618072
313	56050	7.055282073003	0.099943618072
313	57183	7.155433691075	0.100151618072
313	58316	7.255442309148	0.100008618073
313	59449	7.355372927221	0.099930618073
313	60582	7.455433545294	0.100060618073
313	61715	7.555338163367	0.099904618073
313	62848	7.65542478144	0.100086618073
313	63981	7.755290399513	0.099865618073
313	65114	7.855338017586	0.100047618073
313	66247	7.955320635659	0.099982618073
313	67387	8.055342253732	0.100021618073
313	68520	8.155285871805	0.099943618073
313	69653	8.255385489878	0.100099618073
313	70786	8.355290107951	0.099904618073
313	71919	8.455246726024	0.099956618073
313	73052	8.555307344097	0.100060618073
313	74185	8.65543296217	0.100125618073
313	75318	8.755246580243	0.099813618073
313	76451	8.855437198316	0.100190618073
313	77584	8.955276816389	0.099839618073
313	78724	9.055441434462	0.100164618073
312	1373	1.229832240167	2
312	2066	1.329825420292	2
312	2802	1.429827693789	2
312	3537	1.529829967286	2
312	4273	1.629832240783	2
312	5008	1.72982151428	2
312	5744	1.829823787776	2
312	6479	1.929826061271	2
312	7221	2.029828334766	2
312	7956	2.129830608261	2
312	8691	2.229832881756	2
312	9426	2.329822155251	2
312	10161	2.429824428746	2
312	10896	2.529826702241	2
312	11631	2.629828975736	2
312	12366	2.729831249231	2
312	13101	2.829820522726	2
312	13836	2.929822796221	2
312	14612	3.029825069716	2
312	15488	3.129827343211	2
312	16414	3.229826043654	2
312	17340	3.329824744096	2
312	18266	3.429823444536	2
312	19192	3.529822144974	2
312	20118	3.629820845411	2
312	21044	3.729832545847	2
312	21970	3.829831246282	2
312	22896	3.929829946716	2
312	23829	4.029828647147	2
312	24755	4.129827347579	2
312	25681	4.22982604801	2
312	26607	4.32982474844	2
312	27533	4.429823448869	2
312	28459	4.529822149297	2
312	29385	4.629820849725	2
312	30311	4.729832550153	2
312	31237	4.829831250581	2
312	32163	4.929829951008	2
312	33128	5.029828651435	2
312	34203	5.129827351862	2
312	35336	5.229822969948	2
312	36469	5.329831588033	2
312	37602	5.429827206116	2
312	38735	5.529822824197	2
312	39868	5.629831442277	2
312	41001	5.729827060356	2
312	42134	5.829822678434	2
312	43268	5.929831296511	2
312	44408	6.029826914587	2
312	45541	6.129822532662	2
312	46674	6.229831150737	2
312	47807	6.329826768811	2
312	48940	6.429822386885	2
312	50073	6.529831004958	2
312	51206	6.629826623031	2
312	52339	6.729822241103	2
312	53472	6.829830859175	2
312	54605	6.929826477247	2
312	55746	7.029822095319	2
312	56879	7.129830713391	2
312	58012	7.229826331464	2
312	59145	7.329821949537	2
312	60278	7.42983056761	2
312	61411	7.529826185683	2
312	62544	7.629821803756	2
312	63677	7.729830421829	2
312	64810	7.829826039902	2
312	65943	7.929821657975	2
312	67083	8.029830276048	2
312	68216	8.129825894121	2
312	69349	8.229821512194	2
312	70482	8.329830130267	2
312	71615	8.42982574834	2
312	72748	8.529821366413	2
312	73881	8.629829984486	2
312	75014	8.729825602559	2
312	76147	8.829821220632	2
312	77280	8.929829838705	2
312	78420	9.029825456778	2
311	1546	1.254671300209	2
311	2239	1.354664480333	2
311	2975	1.45466675383	2
311	3710	1.554669027327	2
311	4446	1.654671300824	2
311	5182	1.75466057432	2
311	5917	1.854662847816	2
311	6653	1.954665121311	2
311	7394	2.054667394806	2
311	8129	2.154669668301	2
311	8864	2.254671941796	2
311	9599	2.354661215291	2
311	10334	2.454663488786	2
311	11069	2.554665762281	2
311	11804	2.654668035775	2
311	12539	2.75467030927	2
311	13274	2.854672582765	2
311	14009	2.95466185626	2
311	14818	3.054664129755	2
311	15694	3.15466640325	2
311	16620	3.254665103693	2
311	17546	3.354663804135	2
311	18472	3.454662504575	2
311	19398	3.554661205013	2
311	20324	3.65467290545	2
311	21250	3.754671605886	2
311	22176	3.854670306321	2
311	23103	3.954669006755	2
311	24035	4.054667707187	2
311	24961	4.154666407619	2
311	25887	4.25466510805	2
311	26813	4.354663808479	2
311	27739	4.454662508908	2
311	28665	4.554661209336	2
311	29591	4.654672909764	2
311	30517	4.754671610192	2
311	31443	4.85467031062	2
311	32369	4.954669011047	2
311	33367	5.054667711474	2
311	34507	5.15524832956	2
311	35640	5.255438947645	2
311	36773	5.355369565728	2
311	37906	5.455326183809	2
311	39039	5.555412801889	2
311	40172	5.655382419968	2
311	41305	5.755404038046	2
311	42438	5.855412656123	2
311	43572	5.955265274199	2
311	44712	6.055390892274	2
311	45845	6.155373510349	2
311	46978	6.255434128423	2
311	48111	6.355325746497	2
311	49244	6.45538636457	2
311	50377	6.555264982643	2
311	51510	6.655429600715	2
311	52643	6.755256218787	2
311	53776	6.855407836859	2
311	54909	6.955338454931	2
311	56050	7.055282073003	2
311	57183	7.155433691075	2
311	58316	7.255442309148	2
311	59449	7.355372927221	2
311	60582	7.455433545294	2
311	61715	7.555338163367	2
311	62848	7.65542478144	2
311	63981	7.755290399513	2
311	65114	7.855338017586	2
311	66247	7.955320635659	2
311	67387	8.055342253732	2
311	68520	8.155285871805	2
311	69653	8.255385489878	2
311	70786	8.355290107951	2
311	71919	8.455246726024	2
311	73052	8.555307344097	2
311	74185	8.65543296217	2
311	75318	8.755246580243	2
311	76451	8.855437198316	2
311	77584	8.955276816389	2
311	78724	9.055441434462	2
310	6944	2	0
310	14304	3	0
310	23453	4	0
310	32720	5	0
310	43974	6	0
310	55312	7	0
310	66649	8	0
310	77986	9	0
309	6944	2	0.020841
309	14304	3	0.02481
309	23453	4	0.028778
309	32720	5	0.02977
309	43974	6	0.034234
309	55312	7	0.03473
309	66649	8	0.03473
309	77986	9	0.03473
308	6944	2	2
308	14304	3	2
308	23453	4	2
308	32720	5	2
308	43974	6	2
308	55312	7	2
308	66649	8	2
308	77986	9	2
330	635	1.11	0
330	1196	1.21	-0.0010837
330	1890	1.31	-0.00159829
330	2625	1.41	-0.00208405
330	3361	1.51	-0.00202689
330	4097	1.61	-0.00191566
330	4832	1.71	-0.00180058
330	5568	1.81	-0.00167545
330	6303	1.91	-0.00156764
330	7045	2.01	-0.00140832
330	7780	2.11	-0.00126818
330	8515	2.21	-0.0011463
330	9250	2.31	-0.000996315
330	9985	2.41	-0.000876369
330	10720	2.51	-0.000773132
330	11455	2.61	-0.00065313
330	12190	2.71	-0.000547506
330	12925	2.81	-0.000456872
330	13660	2.91	-0.000381393
330	14404	3.01	-0.000280949
330	15281	3.11	-0.000230191
330	16207	3.21	-0.000163263
330	17133	3.31	-0.000109864
330	18059	3.41	-8.39639e-05
330	18985	3.51	-2.96202e-05
330	19911	3.61	-5.83572e-06
330	20837	3.71	1.31974e-05
330	21763	3.81	4.35293e-05
330	22689	3.91	6.09207e-05
330	23622	4.01	8.14612e-05
330	24548	4.11	5.09868e-05
330	25474	4.21	6.06345e-05
330	26400	4.31	6.60859e-05
330	27326	4.41	6.79811e-05
330	28252	4.51	6.69282e-05
330	29178	4.61	6.34941e-05
330	30104	4.71	5.81996e-05
330	31030	4.81	5.15149e-05
330	31956	4.91	4.38587e-05
330	32889	5.01	3.55979e-05
330	33965	5.11	2.70486e-05
330	35098	5.21	2.84704e-05
330	36231	5.31	2.50433e-05
330	37364	5.41	2.69736e-05
330	38497	5.51	4.90404e-05
330	39630	5.61	4.12459e-05
330	40763	5.71	4.88082e-05
330	41896	5.81	4.15944e-05
330	43030	5.91	3.47214e-05
330	44170	6.01	2.82889e-05
330	45303	6.11	2.23658e-05
330	46436	6.21	1.69955e-05
330	47569	6.31	1.21997e-05
330	48702	6.41	7.98238e-06
330	49835	6.51	4.33361e-06
330	50968	6.61	1.23222e-06
330	52101	6.71	-1.35135e-06
330	53234	6.81	-3.45274e-06
330	54367	6.91	-5.11172e-06
330	55508	7.01	-6.37046e-06
330	56641	7.11	-7.2722e-06
330	57774	7.21	-7.86008e-06
330	58907	7.31	-8.17619e-06
330	60040	7.41	-8.26091e-06
330	61173	7.51	-8.15235e-06
330	62306	7.61	-7.88593e-06
330	63439	7.71	-7.49418e-06
330	64572	7.81	-7.00652e-06
330	65705	7.91	-6.44926e-06
330	66845	8.01	-5.8456e-06
330	67978	8.11	-5.21572e-06
330	69111	8.21	-4.57687e-06
330	70244	8.31	-3.94359e-06
330	71377	8.41	-3.32785e-06
330	72510	8.51	-2.73929e-06
330	73643	8.61	-2.18542e-06
330	74776	8.71	-1.67182e-06
330	75909	8.81	-1.2024e-06
330	77042	8.91	-7.79598e-07
330	78182	9.01	-4.04559e-07
329	635	1.11	0
329	1196	1.21	-0.000102108
329	1890	1.31	-0.000364416
329	2625	1.41	-0.000668348
329	3361	1.51	-0.000917148
329	4097	1.61	-0.00110276
329	4832	1.71	-0.00123413
329	5568	1.81	-0.00132051
329	6303	1.91	-0.00137112
329	7045	2.01	-0.00138552
329	7780	2.11	-0.00137171
329	8515	2.21	-0.00133728
329	9250	2.31	-0.00128299
329	9985	2.41	-0.00121608
329	10720	2.51	-0.00114204
329	11455	2.61	-0.00105965
329	12190	2.71	-0.000972483
329	12925	2.81	-0.000884077
329	13660	2.91	-0.00079738
329	14404	3.01	-0.000708952
329	15281	3.11	-0.000625437
329	16207	3.21	-0.000545541
329	17133	3.31	-0.000469187
329	18059	3.41	-0.000401859
329	18985	3.51	-0.000337073
329	19911	3.61	-0.000278927
329	20837	3.71	-0.000226835
329	21763	3.81	-0.000179347
329	22689	3.91	-0.000136891
329	23622	4.01	-9.82802e-05
329	24548	4.11	-7.11237e-05
329	25474	4.21	-4.76758e-05
329	26400	4.31	-2.73123e-05
329	27326	4.41	-1.01429e-05
329	28252	4.51	3.85347e-06
329	29178	4.61	1.47977e-05
329	30104	4.71	2.28847e-05
329	31030	4.81	2.83608e-05
329	31956	4.91	3.15056e-05
329	32889	5.01	3.26162e-05
329	33965	5.11	3.19951e-05
329	35098	5.21	3.08829e-05
329	36231	5.31	3.01178e-05
329	37364	5.41	2.97352e-05
329	38497	5.51	3.30489e-05
329	39630	5.61	3.48526e-05
329	40763	5.71	3.74259e-05
329	41896	5.81	3.8471e-05
329	43030	5.91	3.80742e-05
329	44170	6.01	3.65713e-05
329	45303	6.11	3.42511e-05
329	46436	6.21	3.1359e-05
329	47569	6.31	2.81008e-05
329	48702	6.41	2.46469e-05
329	49835	6.51	2.11353e-05
329	50968	6.61	1.76759e-05
329	52101	6.71	1.43539e-05
329	53234	6.81	1.12328e-05
329	54367	6.91	8.35768e-06
329	55508	7.01	5.75794e-06
329	56641	7.11	3.45e-06
329	57774	7.21	1.43949e-06
329	58907	7.31	-2.76574e-07
329	60040	7.41	-1.70798e-06
329	61173	7.51	-2.86973e-06
329	62306	7.61	-3.78057e-06
329	63439	7.71	-4.46188e-06
329	64572	7.81	-4.93659e-06
329	65705	7.91	-5.22835e-06
329	66845	8.01	-5.36087e-06
329	67978	8.11	-5.35732e-06
329	69111	8.21	-5.23992e-06
329	70244	8.31	-5.02962e-06
329	71377	8.41	-4.74584e-06
329	72510	8.51	-4.40633e-06
329	73643	8.61	-4.02709e-06
329	74776	8.71	-3.6223e-06
329	75909	8.81	-3.20437e-06
329	77042	8.91	-2.78394e-06
329	78182	9.01	-2.37003e-06
328	635	1.11	242.45
328	1196	1.21	242.45
328	1890	1.31	242.45
328	2625	1.41	242.45
328	3361	1.51	242.45
328	4097	1.61	242.45
328	4832	1.71	242.45
328	5568	1.81	242.45
328	6303	1.91	242.45
328	7045	2.01	242.45
328	7780	2.11	242.45
328	8515	2.21	242.45
328	9250	2.31	242.45
328	9985	2.41	242.45
328	10720	2.51	242.45
328	11455	2.61	242.45
328	12190	2.71	242.45
328	12925	2.81	242.45
328	13660	2.91	242.45
328	14404	3.01	242.45
328	15281	3.11	242.45
328	16207	3.21	242.45
328	17133	3.31	242.45
328	18059	3.41	242.45
328	18985	3.51	242.45
328	19911	3.61	242.45
328	20837	3.71	242.45
328	21763	3.81	242.45
328	22689	3.91	242.45
328	23622	4.01	242.45
328	24548	4.11	242.45
328	25474	4.21	242.45
328	26400	4.31	242.45
328	27326	4.41	242.45
328	28252	4.51	242.45
328	29178	4.61	242.45
328	30104	4.71	242.45
328	31030	4.81	242.45
328	31956	4.91	242.45
328	32889	5.01	242.45
328	33965	5.11	242.45
328	35098	5.21	242.45
328	36231	5.31	242.45
328	37364	5.41	242.45
328	38497	5.51	242.45
328	39630	5.61	242.45
328	40763	5.71	242.45
328	41896	5.81	242.45
328	43030	5.91	242.45
328	44170	6.01	242.45
328	45303	6.11	242.45
328	46436	6.21	242.45
328	47569	6.31	242.45
328	48702	6.41	242.45
328	49835	6.51	242.45
328	50968	6.61	242.45
328	52101	6.71	242.45
328	53234	6.81	242.45
328	54367	6.91	242.45
328	55508	7.01	242.45
[...]
348	55509	7.01	4
348	56642	7.11	4
348	57775	7.21	4
348	58908	7.31	4
348	60041	7.41	4
348	61174	7.51	4
348	62307	7.61	4
348	63440	7.71	4
348	64573	7.81	4
348	65706	7.91	4
348	66846	8.01	4
348	67979	8.11	4
348	69112	8.21	4
348	70245	8.31	4
348	71378	8.41	4
348	72511	8.51	4
348	73644	8.61	4
348	74777	8.71	4
348	75910	8.81	4
348	77043	8.91	4
348	78183	9.01	4
356	6946	2	0
356	14306	3	0
356	23455	4	0
356	32722	5	0
356	43976	6	0
356	55314	7	0
356	66651	8	0
356	77988	9	0
355	6946	2	0.018855
355	14306	3	0.02481
355	23455	4	0.028778
355	32722	5	0.02977
355	43976	6	0.034234
355	55314	7	0.03473
355	66651	8	0.03473
355	77988	9	0.03473
354	6946	2	4
354	14306	3	4
354	23455	4	4
354	32722	5	4
354	43976	6	4
354	55314	7	4
354	66651	8	4
354	77988	9	4
376	15283	3.11	-0.00218518
376	16209	3.21	-0.00213419
376	17135	3.31	-0.00205408
376	18061	3.41	-0.00195152
376	18987	3.51	-0.00183238
376	19913	3.61	-0.00170178
376	20839	3.71	-0.00156412
376	21765	3.81	-0.00142314
376	22691	3.91	-0.00128196
376	23624	4.01	-0.00114315
376	24550	4.11	-0.00100877
376	25476	4.21	-0.000880447
376	26402	4.31	-0.000759381
376	27328	4.41	-0.000646445
376	28254	4.51	-0.000542204
376	29180	4.61	-0.000446965
376	30106	4.71	-0.000360819
376	31032	4.81	-0.000283678
376	31958	4.91	-0.000215307
376	32891	5.01	-0.000155357
376	33967	5.11	-0.000103391
376	35100	5.21	-5.89069e-05
376	36233	5.31	-2.13575e-05
376	37366	5.41	9.82919e-06
376	38499	5.51	3.52368e-05
376	39632	5.61	5.54479e-05
376	40765	5.71	7.10335e-05
376	41898	5.81	8.25451e-05
376	43032	5.91	9.05081e-05
376	44172	6.01	9.54172e-05
376	45305	6.11	9.7733e-05
376	46438	6.21	9.78798e-05
376	47571	6.31	9.62447e-05
376	48704	6.41	9.31771e-05
376	49837	6.51	8.89894e-05
376	50970	6.61	8.39579e-05
376	52103	6.71	7.83245e-05
376	53236	6.81	7.22983e-05
376	54369	6.91	6.6058e-05
376	55510	7.01	5.9754e-05
376	56643	7.11	5.35107e-05
376	57776	7.21	4.74294e-05
376	58909	7.31	4.15898e-05
376	60042	7.41	3.60534e-05
376	61175	7.51	3.0865e-05
376	62308	7.61	2.60551e-05
376	63441	7.71	2.16419e-05
376	64574	7.81	1.76335e-05
376	65707	7.91	1.40289e-05
376	66847	8.01	1.08202e-05
376	67980	8.11	7.99392e-06
376	69113	8.21	5.532e-06
376	70246	8.31	3.41315e-06
376	71379	8.41	1.61374e-06
376	72512	8.51	1.08654e-07
376	73645	8.61	-1.12799e-06
376	74778	8.71	-2.12224e-06
376	75911	8.81	-2.89981e-06
376	77044	8.91	-3.48567e-06
376	78184	9.01	-3.90376e-06
375	15283	3.11	-0.000358191
375	16209	3.21	-0.000681704
375	17135	3.31	-0.00093487
375	18061	3.41	-0.00112579
375	18987	3.51	-0.00126221
375	19913	3.61	-0.00135149
375	20839	3.71	-0.00140049
375	21765	3.81	-0.00141557
375	22691	3.91	-0.00140255
375	23624	4.01	-0.00136671
375	24550	4.11	-0.0013128
375	25476	4.21	-0.00124502
375	26402	4.31	-0.0011671
375	27328	4.41	-0.00108223
375	28254	4.51	-0.000993208
375	29180	4.61	-0.000902362
375	30106	4.71	-0.000811651
375	31032	4.81	-0.000722679
375	31958	4.91	-0.000636729
375	32891	5.01	-0.0005548
375	33967	5.11	-0.000477639
375	35100	5.21	-0.000405773
375	36233	5.31	-0.00033954
375	37366	5.41	-0.000279116
375	38499	5.51	-0.000224541
375	39632	5.61	-0.000175743
375	40765	5.71	-0.00013256
375	41898	5.81	-9.47571e-05
375	43032	5.91	-6.2046e-05
375	44172	6.01	-3.40986e-05
375	45305	6.11	-1.05605e-05
375	46438	6.21	8.93844e-06
375	47571	6.31	2.4774e-05
375	48704	6.41	3.73203e-05
375	49837	6.51	4.69433e-05
375	50970	6.61	5.39956e-05
375	52103	6.71	5.88124e-05
375	53236	6.81	6.1709e-05
375	54369	6.91	6.29785e-05
375	55510	7.01	6.28903e-05
375	56643	7.11	6.169e-05
375	57776	7.21	5.95988e-05
375	58909	7.31	5.68144e-05
375	60042	7.41	5.35112e-05
375	61175	7.51	4.98416e-05
375	62308	7.61	4.59373e-05
375	63441	7.71	4.19105e-05
375	64574	7.81	3.78555e-05
375	65707	7.91	3.38499e-05
375	66847	8.01	2.99569e-05
375	67980	8.11	2.62259e-05
375	69113	8.21	2.26948e-05
375	70246	8.31	1.93911e-05
375	71379	8.41	1.6333e-05
375	72512	8.51	1.35314e-05
375	73645	8.61	1.09904e-05
375	74778	8.71	8.70882e-06
375	75911	8.81	6.6809e-06
375	77044	8.91	4.89747e-06
375	78184	9.01	3.3466e-06
374	15283	3.11	242.45
374	16209	3.21	242.45
374	17135	3.31	242.45
374	18061	3.41	242.45
374	18987	3.51	242.45
374	19913	3.61	242.45
374	20839	3.71	242.45
374	21765	3.81	242.45
374	22691	3.91	242.45
374	23624	4.01	242.45
374	24550	4.11	242.45
374	25476	4.21	242.45
374	26402	4.31	242.45
374	27328	4.41	242.45
374	28254	4.51	242.45
374	29180	4.61	242.45
374	30106	4.71	242.45
374	31032	4.81	242.45
374	31958	4.91	242.45
374	32891	5.01	242.45
374	33967	5.11	242.45
374	35100	5.21	242.45
374	36233	5.31	242.45
374	37366	5.41	242.45
374	38499	5.51	242.45
374	39632	5.61	242.45
374	40765	5.71	242.45
374	41898	5.81	242.45
374	43032	5.91	242.45
374	44172	6.01	242.45
374	45305	6.11	242.45
374	46438	6.21	242.45
374	47571	6.31	242.45
374	48704	6.41	242.45
374	49837	6.51	242.45
374	50970	6.61	242.45
374	52103	6.71	242.45
374	53236	6.81	242.45
374	54369	6.91	242.45
374	55510	7.01	242.45
374	56643	7.11	242.45
374	57776	7.21	242.45
374	58909	7.31	242.45
374	60042	7.41	242.45
374	61175	7.51	242.45
374	62308	7.61	242.45
374	63441	7.71	242.45
374	64574	7.81	242.45
374	65707	7.91	242.45
374	66847	8.01	242.45
374	67980	8.11	242.45
374	69113	8.21	242.45
374	70246	8.31	242.45
374	71379	8.41	242.45
374	72512	8.51	242.45
374	73645	8.61	242.45
374	74778	8.71	242.45
374	75911	8.81	242.45
374	77044	8.91	242.45
374	78184	9.01	242.45
373	15283	3.11	2.5002
373	16209	3.21	5.2782
373	17135	3.31	8.05618
373	18061	3.41	10.8342
373	18987	3.51	13.6121
373	19913	3.61	16.3901
373	20839	3.71	19.168
373	21765	3.81	21.946
373	22691	3.91	24.7239
373	23624	4.01	27.5018
373	24550	4.11	30.2797
373	25476	4.21	33.0575
373	26402	4.31	35.8354
373	27328	4.41	38.6132
373	28254	4.51	41.3911
373	29180	4.61	44.1689
373	30106	4.71	46.9467
373	31032	4.81	49.7245
373	31958	4.91	52.5023
373	32891	5.01	55.2801
373	33967	5.11	58.0579
373	35100	5.21	60.8357
373	36233	5.31	63.6135
373	37366	5.41	66.3913
373	38499	5.51	69.1691
373	39632	5.61	71.9468
373	40765	5.71	74.7246
373	41898	5.81	77.5024
373	43032	5.91	80.2802
373	44172	6.01	83.0579
373	45305	6.11	85.8357
373	46438	6.21	88.6135
373	47571	6.31	91.3912
373	48704	6.41	94.169
373	49837	6.51	96.9468
373	50970	6.61	99.7245
373	52103	6.71	102.502
373	53236	6.81	105.28
373	54369	6.91	108.058
373	55510	7.01	110.836
373	56643	7.11	113.613
373	57776	7.21	116.391
373	58909	7.31	119.169
373	60042	7.41	121.947
373	61175	7.51	124.725
373	62308	7.61	127.502
373	63441	7.71	130.28
373	64574	7.81	133.058
373	65707	7.91	135.836
373	66847	8.01	138.613
373	67980	8.11	141.391
373	69113	8.21	144.169
373	70246	8.31	146.947
373	71379	8.41	149.725
373	72512	8.51	152.502
373	73645	8.61	155.28
373	74778	8.71	158.058
373	75911	8.81	160.836
373	77044	8.91	163.613
373	78184	9.01	166.391
372	15283	3.11	27.78
372	16209	3.21	27.7799
372	17135	3.31	27.7798
372	18061	3.41	27.7797
372	18987	3.51	27.7796
372	19913	3.61	27.7795
372	20839	3.71	27.7794
372	21765	3.81	27.7792
372	22691	3.91	27.7791
372	23624	4.01	27.7789
372	24550	4.11	27.7788
372	25476	4.21	27.7787
372	26402	4.31	27.7785
372	27328	4.41	27.7784
372	28254	4.51	27.7783
372	29180	4.61	27.7782
372	30106	4.71	27.7782
372	31032	4.81	27.7781
372	31958	4.91	27.778
372	32891	5.01	27.7779
372	33967	5.11	27.7779
372	35100	5.21	27.7779
372	36233	5.31	27.7778
372	37366	5.41	27.7778
372	38499	5.51	27.7778
372	39632	5.61	27.7777
372	40765	5.71	27.7777
372	41898	5.81	27.7777
372	43032	5.91	27.7777
372	44172	6.01	27.7777
372	45305	6.11	27.7777
372	46438	6.21	27.7777
372	47571	6.31	27.7777
372	48704	6.41	27.7777
372	49837	6.51	27.7777
372	50970	6.61	27.7777
372	52103	6.71	27.7777
372	53236	6.81	27.7777
372	54369	6.91	27.7777
372	55510	7.01	27.7777
372	56643	7.11	27.7777
372	57776	7.21	27.7778
372	58909	7.31	27.7778
372	60042	7.41	27.7778
372	61175	7.51	27.7778
372	62308	7.61	27.7778
372	63441	7.71	27.7778
372	64574	7.81	27.7778
372	65707	7.91	27.7778
372	66847	8.01	27.7778
372	67980	8.11	27.7778
372	69113	8.21	27.7778
372	70246	8.31	27.7778
372	71379	8.41	27.7778
372	72512	8.51	27.7778
372	73645	8.61	27.7778
372	74778	8.71	27.7778
372	75911	8.81	27.7778
372	77044	8.91	27.7778
372	78184	9.01	27.7778
370	15283	3.11	-0.00197266
370	16209	3.21	-0.00197756
370	17135	3.31	-0.00194611
370	18061	3.41	-0.00188541
370	18987	3.51	-0.0018018
370	19913	3.61	-0.00170089
370	20839	3.71	-0.0015876
370	21765	3.81	-0.00146619
370	22691	3.91	-0.00134029
370	23624	4.01	-0.00121298
370	24550	4.11	-0.00108678
370	25476	4.21	-0.000963755
370	26402	4.31	-0.000845549
370	27328	4.41	-0.000733413
370	28254	4.51	-0.000628269
370	29180	4.61	-0.000530745
370	30106	4.71	-0.000441222
370	31032	4.81	-0.000359869
370	31958	4.91	-0.000286676
370	32891	5.01	-0.000221491
370	33967	5.11	-0.000164043
370	35100	5.21	-0.000113974
370	36233	5.31	-7.08559e-05
370	37366	5.41	-3.4213e-05
370	38499	5.51	-3.53944e-06
370	39632	5.61	2.16871e-05
370	40765	5.71	4.19926e-05
370	41898	5.81	5.7897e-05
370	43032	5.91	6.99058e-05
370	44172	6.01	7.85033e-05
370	45305	6.11	8.41483e-05
370	46438	6.21	8.72698e-05
370	47571	6.31	8.82653e-05
370	48704	6.41	8.74989e-05
370	49837	6.51	8.53007e-05
370	50970	6.61	8.19676e-05
370	52103	6.71	7.7763e-05
370	53236	6.81	7.29191e-05
370	54369	6.91	6.76376e-05
370	55510	7.01	6.20917e-05
370	56643	7.11	5.64285e-05
370	57776	7.21	5.07706e-05
370	58909	7.31	4.52185e-05
370	60042	7.41	3.98529e-05
370	61175	7.51	3.47364e-05
370	62308	7.61	2.9916e-05
370	63441	7.71	2.54251e-05
370	64574	7.81	2.1285e-05
370	65707	7.91	1.75068e-05
370	66847	8.01	1.40935e-05
370	67980	8.11	1.10405e-05
370	69113	8.21	8.33803e-06
370	70246	8.31	5.97149e-06
370	71379	8.41	3.923e-06
370	72512	8.51	2.17217e-06
370	73645	8.61	6.96912e-07
370	74778	8.71	-5.25811e-07
370	75911	8.81	-1.51944e-06
370	77044	8.91	-2.30731e-06
370	78184	9.01	-2.91225e-06
369	15283	3.11	46.0021
369	16209	3.21	46.0019
369	17135	3.31	46.0017
369	18061	3.41	46.0016
369	18987	3.51	46.0014
369	19913	3.61	46.0012
369	20839	3.71	46.001
369	21765	3.81	46.0009
369	22691	3.91	46.0007
369	23624	4.01	46.0006
369	24550	4.11	46.0005
369	25476	4.21	46.0004
369	26402	4.31	46.0003
369	27328	4.41	46.0002
369	28254	4.51	46.0002
369	29180	4.61	46.0001
369	30106	4.71	46
369	31032	4.81	46
369	31958	4.91	46
369	32891	5.01	46
369	33967	5.11	45.9999
369	35100	5.21	45.9999
369	36233	5.31	45.9999
369	37366	5.41	45.9999
369	38499	5.51	45.9999
369	39632	5.61	45.9999
369	40765	5.71	45.9999
369	41898	5.81	45.9999
369	43032	5.91	45.9999
369	44172	6.01	45.9999
369	45305	6.11	45.9999
369	46438	6.21	45.9999
369	47571	6.31	46
369	48704	6.41	46
369	49837	6.51	46
369	50970	6.61	46
369	52103	6.71	46
369	53236	6.81	46
369	54369	6.91	46
369	55510	7.01	46
369	56643	7.11	46
369	57776	7.21	46
369	58909	7.31	46
369	60042	7.41	46
369	61175	7.51	46
369	62308	7.61	46
369	63441	7.71	46
369	64574	7.81	46
369	65707	7.91	46
369	66847	8.01	46
369	67980	8.11	46
369	69113	8.21	46
369	70246	8.31	46
369	71379	8.41	46
369	72512	8.51	46
369	73645	8.61	46
369	74778	8.71	46
369	75911	8.81	46
369	77044	8.91	46
369	78184	9.01	46
371	15283	3.11	5
371	16209	3.21	5
371	17135	3.31	5
371	18061	3.41	5
371	18987	3.51	5
371	19913	3.61	5
371	20839	3.71	5
371	21765	3.81	5
371	22691	3.91	5
371	23624	4.01	5
371	24550	4.11	5
371	25476	4.21	5
371	26402	4.31	5
371	27328	4.41	5
371	28254	4.51	5
371	29180	4.61	5
371	30106	4.71	5
371	31032	4.81	5
371	31958	4.91	5
371	32891	5.01	5
371	33967	5.11	5
371	35100	5.21	5
371	36233	5.31	5
371	37366	5.41	5
371	38499	5.51	5
371	39632	5.61	5
371	40765	5.71	5
371	41898	5.81	5
371	43032	5.91	5
371	44172	6.01	5
371	45305	6.11	5
371	46438	6.21	5
371	47571	6.31	5
371	48704	6.41	5
371	49837	6.51	5
371	50970	6.61	5
371	52103	6.71	5
371	53236	6.81	5
371	54369	6.91	5
371	55510	7.01	5
371	56643	7.11	5
371	57776	7.21	5
371	58909	7.31	5
371	60042	7.41	5
371	61175	7.51	5
371	62308	7.61	5
371	63441	7.71	5
371	64574	7.81	5
371	65707	7.91	5
371	66847	8.01	5
371	67980	8.11	5
371	69113	8.21	5
371	70246	8.31	5
371	71379	8.41	5
371	72512	8.51	5
371	73645	8.61	5
371	74778	8.71	5
371	75911	8.81	5
371	77044	8.91	5
371	78184	9.01	5
379	23456	4	0
379	32723	5	0
379	43977	6	0
379	55315	7	0
379	66652	8	0
379	77989	9	0
378	23456	4	0.02828
378	32723	5	0.02977
378	43977	6	0.034234
378	55315	7	0.03473
378	66652	8	0.03473
378	77989	9	0.03473
377	23456	4	5
377	32723	5	5
377	43977	6	5
377	55315	7	5
377	66652	8	5
377	77989	9	5
399	33968	5.11	-0.00218518
399	35101	5.21	-0.00213419
399	36234	5.31	-0.00205408
399	37367	5.41	-0.00195152
399	38500	5.51	-0.00183238
399	39633	5.61	-0.00170178
399	40766	5.71	-0.00156412
399	41899	5.81	-0.00142314
399	43033	5.91	-0.00128196
399	44173	6.01	-0.00114315
399	45306	6.11	-0.00100877
399	46439	6.21	-0.000880447
399	47572	6.31	-0.000759381
399	48705	6.41	-0.000646445
399	49838	6.51	-0.000542204
399	50971	6.61	-0.000446965
399	52104	6.71	-0.000360819
399	53237	6.81	-0.000283678
399	54370	6.91	-0.000215307
399	55511	7.01	-0.000155357
399	56644	7.11	-0.000103391
399	57777	7.21	-5.89069e-05
399	58910	7.31	-2.13575e-05
399	60043	7.41	9.82919e-06
399	61176	7.51	3.52368e-05
399	62309	7.61	5.54479e-05
399	63442	7.71	7.10335e-05
399	64575	7.81	8.25451e-05
399	65708	7.91	9.05081e-05
399	66848	8.01	9.54172e-05
399	67981	8.11	9.7733e-05
399	69114	8.21	9.78798e-05
399	70247	8.31	9.62447e-05
399	71380	8.41	9.31771e-05
399	72513	8.51	8.89894e-05
399	73646	8.61	8.39579e-05
399	74779	8.71	7.83245e-05
399	75912	8.81	7.22983e-05
399	77045	8.91	6.6058e-05
399	78185	9.01	5.9754e-05
398	33968	5.11	-0.000358191
398	35101	5.21	-0.000681704
398	36234	5.31	-0.00093487
398	37367	5.41	-0.00112579
398	38500	5.51	-0.00126221
398	39633	5.61	-0.00135149
398	40766	5.71	-0.00140049
398	41899	5.81	-0.00141557
398	43033	5.91	-0.00140255
398	44173	6.01	-0.00136671
398	45306	6.11	-0.0013128
398	46439	6.21	-0.00124502
398	47572	6.31	-0.0011671
398	48705	6.41	-0.00108223
398	49838	6.51	-0.000993208
398	50971	6.61	-0.000902362
398	52104	6.71	-0.000811651
398	53237	6.81	-0.000722679
398	54370	6.91	-0.000636729
398	55511	7.01	-0.0005548
398	56644	7.11	-0.000477639
398	57777	7.21	-0.000405773
398	58910	7.31	-0.00033954
398	60043	7.41	-0.000279116
398	61176	7.51	-0.000224541
398	62309	7.61	-0.000175743
398	63442	7.71	-0.00013256
398	64575	7.81	-9.47571e-05
398	65708	7.91	-6.2046e-05
398	66848	8.01	-3.40986e-05
398	67981	8.11	-1.05605e-05
398	69114	8.21	8.93844e-06
398	70247	8.31	2.4774e-05
398	71380	8.41	3.73203e-05
398	72513	8.51	4.69433e-05
398	73646	8.61	5.39956e-05
398	74779	8.71	5.88124e-05
398	75912	8.81	6.1709e-05
398	77045	8.91	6.29785e-05
398	78185	9.01	6.28903e-05
397	33968	5.11	242.45
397	35101	5.21	242.45
397	36234	5.31	242.45
397	37367	5.41	242.45
397	38500	5.51	242.45
397	39633	5.61	242.45
397	40766	5.71	242.45
397	41899	5.81	242.45
397	43033	5.91	242.45
397	44173	6.01	242.45
397	45306	6.11	242.45
397	46439	6.21	242.45
397	47572	6.31	242.45
397	48705	6.41	242.45
397	49838	6.51	242.45
397	50971	6.61	242.45
397	52104	6.71	242.45
397	53237	6.81	242.45
397	54370	6.91	242.45
397	55511	7.01	242.45
397	56644	7.11	242.45
397	57777	7.21	242.45
397	58910	7.31	242.45
397	60043	7.41	242.45
397	61176	7.51	242.45
397	62309	7.61	242.45
397	63442	7.71	242.45
397	64575	7.81	242.45
397	65708	7.91	242.45
397	66848	8.01	242.45
397	67981	8.11	242.45
397	69114	8.21	242.45
397	70247	8.31	242.45
397	71380	8.41	242.45
397	72513	8.51	242.45
397	73646	8.61	242.45
397	74779	8.71	242.45
397	75912	8.81	242.45
397	77045	8.91	242.45
397	78185	9.01	242.45
396	33968	5.11	2.5002
396	35101	5.21	5.2782
396	36234	5.31	8.05618
396	37367	5.41	10.8342
396	38500	5.51	13.6121
396	39633	5.61	16.3901
396	40766	5.71	19.168
396	41899	5.81	21.946
396	43033	5.91	24.7239
396	44173	6.01	27.5018
396	45306	6.11	30.2797
396	46439	6.21	33.0575
396	47572	6.31	35.8354
396	48705	6.41	38.6132
396	49838	6.51	41.3911
396	50971	6.61	44.1689
396	52104	6.71	46.9467
396	53237	6.81	49.7245
396	54370	6.91	52.5023
396	55511	7.01	55.2801
396	56644	7.11	58.0579
396	57777	7.21	60.8357
396	58910	7.31	63.6135
396	60043	7.41	66.3913
396	61176	7.51	69.1691
396	62309	7.61	71.9468
396	63442	7.71	74.7246
396	64575	7.81	77.5024
396	65708	7.91	80.2802
396	66848	8.01	83.0579
396	67981	8.11	85.8357
396	69114	8.21	88.6135
396	70247	8.31	91.3912
396	71380	8.41	94.169
396	72513	8.51	96.9468
396	73646	8.61	99.7245
396	74779	8.71	102.502
396	75912	8.81	105.28
396	77045	8.91	108.058
396	78185	9.01	110.836
395	33968	5.11	27.78
395	35101	5.21	27.7799
395	36234	5.31	27.7798
395	37367	5.41	27.7797
395	38500	5.51	27.7796
395	39633	5.61	27.7795
395	40766	5.71	27.7794
395	41899	5.81	27.7792
395	43033	5.91	27.7791
395	44173	6.01	27.7789
395	45306	6.11	27.7788
395	46439	6.21	27.7787
395	47572	6.31	27.7785
395	48705	6.41	27.7784
395	49838	6.51	27.7783
395	50971	6.61	27.7782
395	52104	6.71	27.7782
395	53237	6.81	27.7781
395	54370	6.91	27.778
395	55511	7.01	27.7779
395	56644	7.11	27.7779
395	57777	7.21	27.7779
395	58910	7.31	27.7778
395	60043	7.41	27.7778
395	61176	7.51	27.7778
395	62309	7.61	27.7777
395	63442	7.71	27.7777
395	64575	7.81	27.7777
395	65708	7.91	27.7777
395	66848	8.01	27.7777
395	67981	8.11	27.7777
395	69114	8.21	27.7777
395	70247	8.31	27.7777
395	71380	8.41	27.7777
395	72513	8.51	27.7777
395	73646	8.61	27.7777
395	74779	8.71	27.7777
395	75912	8.81	27.7777
395	77045	8.91	27.7777
395	78185	9.01	27.7777
393	33968	5.11	-0.00208298
393	35101	5.21	-0.00207252
393	36234	5.31	-0.00202677
393	37367	5.41	-0.00195288
393	38500	5.51	-0.00185724
393	39633	5.61	-0.00174547
393	40766	5.71	-0.00162248
393	41899	5.81	-0.00149248
393	43033	5.91	-0.00135906
393	44173	6.01	-0.00122524
393	45306	6.11	-0.00109349
393	46439	6.21	-0.000965787
393	47572	6.31	-0.000843707
393	48705	6.41	-0.000728427
393	49838	6.51	-0.000620792
393	50971	6.61	-0.000521359
393	52104	6.71	-0.000430439
393	53237	6.81	-0.000348132
393	54370	6.91	-0.000274368
393	55511	7.01	-0.000208934
393	56644	7.11	-0.000151509
393	57777	7.21	-0.000101683
393	58910	7.31	-5.89837e-05
393	60043	7.41	-2.28979e-05
393	61176	7.51	7.11567e-06
393	62309	7.61	3.16097e-05
393	63442	7.71	5.11363e-05
393	64575	7.81	6.62378e-05
393	65708	7.91	7.74383e-05
393	66848	8.01	8.52376e-05
393	67981	8.11	9.0107e-05
393	69114	8.21	9.24854e-05
393	70247	8.31	9.27777e-05
393	71380	8.41	9.13535e-05
393	72513	8.51	8.85466e-05
393	73646	8.61	8.46559e-05
393	74779	8.71	7.99457e-05
393	75912	8.81	7.46478e-05
393	77045	8.91	6.89629e-05
393	78185	9.01	6.30623e-05
392	33968	5.11	51.5577
392	35101	5.21	51.5575
392	36234	5.31	51.5573
392	37367	5.41	51.5571
392	38500	5.51	51.5569
392	39633	5.61	51.5567
392	40766	5.71	51.5566
392	41899	5.81	51.5564
392	43033	5.91	51.5563
392	44173	6.01	51.5562
392	45306	6.11	51.556
392	46439	6.21	51.5559
392	47572	6.31	51.5558
392	48705	6.41	51.5558
392	49838	6.51	51.5557
392	50971	6.61	51.5556
392	52104	6.71	51.5556
392	53237	6.81	51.5556
392	54370	6.91	51.5555
392	55511	7.01	51.5555
392	56644	7.11	51.5555
392	57777	7.21	51.5555
392	58910	7.31	51.5555
392	60043	7.41	51.5555
392	61176	7.51	51.5555
392	62309	7.61	51.5555
392	63442	7.71	51.5555
392	64575	7.81	51.5555
392	65708	7.91	51.5555
392	66848	8.01	51.5555
392	67981	8.11	51.5555
392	69114	8.21	51.5555
392	70247	8.31	51.5555
392	71380	8.41	51.5555
392	72513	8.51	51.5555
392	73646	8.61	51.5555
392	74779	8.71	51.5555
392	75912	8.81	51.5556
392	77045	8.91	51.5556
392	78185	9.01	51.5556
394	33968	5.11	6
394	35101	5.21	6
394	36234	5.31	6
394	37367	5.41	6
394	38500	5.51	6
394	39633	5.61	6
394	40766	5.71	6
394	41899	5.81	6
394	43033	5.91	6
394	44173	6.01	6
394	45306	6.11	6
394	46439	6.21	6
394	47572	6.31	6
394	48705	6.41	6
394	49838	6.51	6
394	50971	6.61	6
394	52104	6.71	6
394	53237	6.81	6
394	54370	6.91	6
394	55511	7.01	6
394	56644	7.11	6
394	57777	7.21	6
394	58910	7.31	6
394	60043	7.41	6
394	61176	7.51	6
394	62309	7.61	6
394	63442	7.71	6
394	64575	7.81	6
394	65708	7.91	6
394	66848	8.01	6
394	67981	8.11	6
394	69114	8.21	6
394	70247	8.31	6
394	71380	8.41	6
394	72513	8.51	6
394	73646	8.61	6
394	74779	8.71	6
394	75912	8.81	6
394	77045	8.91	6
394	78185	9.01	6
402	43978	6	0
402	55316	7	0
402	66653	8	0
402	77990	9	0
401	43978	6	0.033241
401	55316	7	0.03473
401	66653	8	0.03473
401	77990	9	0.03473
400	43978	6	6
400	55316	7	6
400	66653	8	6
400	77990	9	6
