version 2
run JoinManeuver-0-20181227-03:08:25-10424
attr beaconInterval 0.1
attr caccOmegaN 0.2
attr caccXi 1
attr configname JoinManeuver
attr datetime 20181227-03:08:25
attr experiment JoinManeuver
attr inifile omnetpp.ini
attr iterationvars "$nCars=4, $platoonSize=4, $nLanes=1, $caccXi=1, $caccOmegaN=0.2, $ploegH=0.5, $leaderHeadway=1.2, $leaderSpeed=100, $beaconInterval=0.1, $priority=2, $packetSize=200"
attr iterationvarsf nCars=4,platoonSize=4,nLanes=1,caccXi=1,caccOmegaN=0.2,ploegH=0.5,leaderHeadway=1.2,leaderSpeed=100,beaconInterval=0.1,priority=2,packetSize=200-
attr leaderHeadway 1.2
attr leaderSpeed 100
attr measurement "$nCars=4, $platoonSize=4, $nLanes=1, $caccXi=1, $caccOmegaN=0.2, $ploegH=0.5, $leaderHeadway=1.2, $leaderSpeed=100, $beaconInterval=0.1, $priority=2, $packetSize=200"
attr nCars 4
attr nLanes 1
attr network Highway
attr packetSize 200
attr platoonSize 4
attr ploegH 0.5
attr priority 2
attr processid 10424
attr repetition 0
attr replication #0
attr resultdir results
attr runnumber 0
attr seedset 0
param **.controllerOmegaN 0.2
param **.controllerXi 1
param **.coreDebug false
param **.debug false
param **.numberOfCars 4
param **.numberOfCarsPerPlatoon 4
param **.numberOfLanes 1
param **.numericController 0
param **.seed 0
param **.traffic.nCars 4
param **.traffic.nLanes 1
param **.traffic.platoonInsertDistance "5 m"
param **.traffic.platoonInsertHeadway "0 s"
param **.traffic.platoonInsertSpeed 100kmph
param **.traffic.platoonInsertTime "1 s"
param **.traffic.platoonLeaderHeadway 1.2s
param **.traffic.platoonSize 4
param **.traffic.platooningVType "\"vtypeauto\""
param **.traffic_type "\"JoinTrafficManager\""
param *.**.nic.mac1609_4.bitrate 6Mbps
param *.**.nic.mac1609_4.txPower 100mW
param *.**.nic.mac1609_4.useServiceChannel false
param *.**.nic.phy80211p.analogueModels "xmldoc(\"config.xml\")"
param *.**.nic.phy80211p.decider "xmldoc(\"config.xml\")"
param *.**.nic.phy80211p.maxTXPower 100mW
param *.**.nic.phy80211p.sensitivity -94dBm
param *.**.nic.phy80211p.thermalNoise -95dBm
param *.**.nic.phy80211p.usePropagationDelay true
param *.**.nic.phy80211p.useThermalNoise true
param *.annotations.draw false
param *.connectionManager.drawMaxIntfDist false
param *.connectionManager.maxInterfDist 2600m
param *.connectionManager.sendDirect true
param *.manager.autoShutdown true
param *.manager.configFile "\"./sumocfg/freeway.sumo.cfg\""
param *.manager.host "\"localhost\""
param *.manager.margin 25
param *.manager.moduleDisplayString "\"\""
param *.manager.moduleName "\"node\""
param *.manager.moduleType "\"org.car2x.veins.modules.application.platooning.PlatoonCar\""
param *.manager.updateInterval 0.01s
param *.manager.useGui true
param *.node[*].appl.joinManeuver "\"JoinAtBack\""
param *.node[*].appl_type "\"GeneralPlatooningApp\""
param *.node[*].helper_type "\"LocalPlatoonPositionHelper\""
param *.node[*].mobility.x 0
param *.node[*].mobility.y 0
param *.node[*].mobility.z 1.895
param *.node[*].prot.beaconingInterval 0.1s
param *.node[*].prot.packetSize 200
param *.node[*].prot.priority 2
param *.node[*].protocol_type "\"SimplePlatooningBeaconing\""
param *.node[*].scenario.accHeadway "0.1 s"
param *.node[*].scenario.caccC1 0.5
param *.node[*].scenario.caccOmegaN "0.2 Hz"
param *.node[*].scenario.caccXi 1
param *.node[*].scenario.controller "\"CACC\""
param *.node[*].scenario.engineTau "0.5 s"
param *.node[*].scenario.leaderHeadway 1.2s
param *.node[*].scenario.leaderSpeed 100kmph
param *.node[*].scenario.ploegH 0.5s
param *.node[*].scenario.ploegKd 0.7
param *.node[*].scenario.ploegKp 0.2
param *.node[*].scenario.useRealisticEngine false
param *.node[*].scenario_type "\"JoinManeuverScenario\""
param *.node[*].unicast.packetLossRate 0
param *.obstacles.debug false
param *.playgroundSizeX 65000m
param *.playgroundSizeY 25000m
param *.playgroundSizeZ 50m
param *.world.use2D false
param *.world.useTorus false

vector 1  Highway.node[0].appl  distance  ETV
vector 2  Highway.node[0].appl  relativeSpeed  ETV
vector 3  Highway.node[0].appl  nodeId  ETV
vector 7  Highway.node[0].appl  acceleration  ETV
vector 8  Highway.node[0].appl  controllerAcceleration  ETV
vector 4  Highway.node[0].appl  speed  ETV
vector 5  Highway.node[0].appl  posx  ETV
vector 6  Highway.node[0].appl  posy  ETV
vector 24  Highway.node[1].appl  distance  ETV
vector 25  Highway.node[1].appl  relativeSpeed  ETV
vector 26  Highway.node[1].appl  nodeId  ETV
vector 30  Highway.node[1].appl  acceleration  ETV
vector 31  Highway.node[1].appl  controllerAcceleration  ETV
vector 27  Highway.node[1].appl  speed  ETV
vector 28  Highway.node[1].appl  posx  ETV
vector 29  Highway.node[1].appl  posy  ETV
vector 47  Highway.node[2].appl  distance  ETV
vector 48  Highway.node[2].appl  relativeSpeed  ETV
vector 49  Highway.node[2].appl  nodeId  ETV
vector 53  Highway.node[2].appl  acceleration  ETV
vector 54  Highway.node[2].appl  controllerAcceleration  ETV
vector 50  Highway.node[2].appl  speed  ETV
vector 51  Highway.node[2].appl  posx  ETV
vector 52  Highway.node[2].appl  posy  ETV
vector 70  Highway.node[3].appl  distance  ETV
vector 71  Highway.node[3].appl  relativeSpeed  ETV
vector 72  Highway.node[3].appl  nodeId  ETV
vector 76  Highway.node[3].appl  acceleration  ETV
vector 77  Highway.node[3].appl  controllerAcceleration  ETV
vector 73  Highway.node[3].appl  speed  ETV
vector 74  Highway.node[3].appl  posx  ETV
vector 75  Highway.node[3].appl  posy  ETV
vector 84  Highway.node[3].prot  frontDelay  ETV
vector 82  Highway.node[3].prot  frontDelayId  ETV
vector 61  Highway.node[2].prot  frontDelay  ETV
vector 59  Highway.node[2].prot  frontDelayId  ETV
vector 37  Highway.node[1].prot  leaderDelay  ETV
vector 35  Highway.node[1].prot  leaderDelayId  ETV
vector 38  Highway.node[1].prot  frontDelay  ETV
vector 36  Highway.node[1].prot  frontDelayId  ETV
vector 60  Highway.node[2].prot  leaderDelay  ETV
vector 58  Highway.node[2].prot  leaderDelayId  ETV
vector 83  Highway.node[3].prot  leaderDelay  ETV
vector 81  Highway.node[3].prot  leaderDelayId  ETV
vector 9  Highway.node[0].prot  nodeId  ETV
vector 10  Highway.node[0].prot  busyTime  ETV
vector 11  Highway.node[0].prot  collisions  ETV
vector 32  Highway.node[1].prot  nodeId  ETV
vector 33  Highway.node[1].prot  busyTime  ETV
vector 34  Highway.node[1].prot  collisions  ETV
vector 55  Highway.node[2].prot  nodeId  ETV
vector 56  Highway.node[2].prot  busyTime  ETV
vector 57  Highway.node[2].prot  collisions  ETV
vector 78  Highway.node[3].prot  nodeId  ETV
vector 79  Highway.node[3].prot  busyTime  ETV
vector 80  Highway.node[3].prot  collisions  ETV
vector 93  Highway.node[4].appl  distance  ETV
vector 94  Highway.node[4].appl  relativeSpeed  ETV
vector 95  Highway.node[4].appl  nodeId  ETV
vector 99  Highway.node[4].appl  acceleration  ETV
vector 100  Highway.node[4].appl  controllerAcceleration  ETV
vector 96  Highway.node[4].appl  speed  ETV
vector 97  Highway.node[4].appl  posx  ETV
vector 98  Highway.node[4].appl  posy  ETV
vector 101  Highway.node[4].prot  nodeId  ETV
vector 102  Highway.node[4].prot  busyTime  ETV
vector 103  Highway.node[4].prot  collisions  ETV
vector 116  Highway.node[5].appl  distance  ETV
vector 117  Highway.node[5].appl  relativeSpeed  ETV
vector 118  Highway.node[5].appl  nodeId  ETV
vector 122  Highway.node[5].appl  acceleration  ETV
vector 123  Highway.node[5].appl  controllerAcceleration  ETV
vector 119  Highway.node[5].appl  speed  ETV
vector 120  Highway.node[5].appl  posx  ETV
vector 121  Highway.node[5].appl  posy  ETV
vector 124  Highway.node[5].prot  nodeId  ETV
vector 125  Highway.node[5].prot  busyTime  ETV
vector 126  Highway.node[5].prot  collisions  ETV
vector 139  Highway.node[6].appl  distance  ETV
vector 140  Highway.node[6].appl  relativeSpeed  ETV
vector 141  Highway.node[6].appl  nodeId  ETV
vector 145  Highway.node[6].appl  acceleration  ETV
vector 146  Highway.node[6].appl  controllerAcceleration  ETV
vector 142  Highway.node[6].appl  speed  ETV
vector 143  Highway.node[6].appl  posx  ETV
vector 144  Highway.node[6].appl  posy  ETV
vector 147  Highway.node[6].prot  nodeId  ETV
vector 148  Highway.node[6].prot  busyTime  ETV
vector 149  Highway.node[6].prot  collisions  ETV
8	632	1.11	-0.00218518
8	1192	1.21	-0.00213419
8	1752	1.31	-0.00205408
8	2312	1.41	-0.00195152
8	2873	1.51	-0.00183238
8	3433	1.61	-0.00170178
8	3993	1.71	-0.00156412
8	4554	1.81	-0.00142314
8	5114	1.91	-0.00128196
8	5680	2.01	-0.00114315
8	6240	2.11	-0.00100877
8	6800	2.21	-0.000880447
8	7360	2.31	-0.000759381
8	7920	2.41	-0.000646445
8	8480	2.51	-0.000542204
8	9040	2.61	-0.000446965
8	9600	2.71	-0.000360819
8	10160	2.81	-0.000283678
8	10720	2.91	-0.000215307
8	11284	3.01	-0.000155357
8	11844	3.11	-0.000103391
8	12404	3.21	-5.89069e-05
8	12964	3.31	-2.13575e-05
8	13524	3.41	9.82919e-06
8	14084	3.51	3.52368e-05
8	14644	3.61	5.54479e-05
8	15204	3.71	7.10335e-05
8	15764	3.81	8.25451e-05
8	16324	3.91	9.05081e-05
8	16888	4.01	9.54172e-05
8	17448	4.11	9.7733e-05
8	18008	4.21	9.78798e-05
8	18568	4.31	9.62447e-05
8	19128	4.41	9.31771e-05
8	19688	4.51	8.89894e-05
8	20248	4.61	8.39579e-05
8	20808	4.71	7.83245e-05
8	21368	4.81	7.22983e-05
8	21928	4.91	6.6058e-05
8	22492	5.01	5.9754e-05
8	23052	5.11	5.35107e-05
8	23612	5.21	4.74294e-05
8	24172	5.31	4.15898e-05
8	24732	5.41	3.60534e-05
8	25292	5.51	3.0865e-05
8	25852	5.61	2.60551e-05
8	26412	5.71	2.16419e-05
8	26972	5.81	1.76335e-05
8	27532	5.91	1.40289e-05
8	28097	6.01	1.08202e-05
8	28791	6.11	7.99392e-06
8	29526	6.21	5.532e-06
8	30261	6.31	3.41315e-06
8	30997	6.41	1.61374e-06
8	31732	6.51	1.08654e-07
8	32467	6.61	-1.12799e-06
8	33202	6.71	-2.12224e-06
8	33937	6.81	-2.89981e-06
8	34672	6.91	-3.48567e-06
8	35413	7.01	-3.90376e-06
8	36291	7.11	-4.17673e-06
8	37217	7.21	-4.32574e-06
8	38143	7.31	-4.3704e-06
8	39069	7.41	-4.32865e-06
8	39995	7.51	-4.21676e-06
8	40921	7.61	-4.04934e-06
8	41847	7.71	-3.83937e-06
8	42773	7.81	-3.59826e-06
8	43699	7.91	-3.33592e-06
8	44632	8.01	-3.06089e-06
8	45708	8.11	-2.78036e-06
8	46841	8.21	-2.50036e-06
8	47974	8.31	-2.22582e-06
8	49107	8.41	-1.96068e-06
8	50241	8.51	-1.708e-06
8	51374	8.61	-1.47009e-06
8	52507	8.71	-1.24855e-06
8	53640	8.81	-1.04441e-06
8	54773	8.91	-8.58219e-07
8	55913	9.01	-6.90082e-07
8	57046	9.11	-5.39774e-07
8	58179	9.21	-4.06787e-07
8	59312	9.31	-2.90396e-07
8	60445	9.41	-1.89707e-07
8	61578	9.51	-1.03704e-07
8	62711	9.61	-3.12909e-08
8	63844	9.71	2.86736e-08
8	64977	9.81	7.73515e-08
8	66110	9.91	1.15897e-07
8	67250	10.01	1.45439e-07
8	68383	10.11	1.67065e-07
8	69516	10.21	1.81809e-07
8	70649	10.31	1.90644e-07
8	71782	10.41	1.94472e-07
8	72915	10.51	1.94125e-07
8	74048	10.61	1.90358e-07
8	75181	10.71	1.83853e-07
8	76314	10.81	1.75219e-07
8	77447	10.91	1.64994e-07
8	78587	11.01	1.53647e-07
8	79720	11.11	1.41582e-07
8	80853	11.21	1.29146e-07
8	81986	11.31	1.16627e-07
8	83119	11.41	1.04266e-07
8	84252	11.51	9.22547e-08
8	85385	11.61	8.07471e-08
8	86518	11.71	6.98584e-08
8	87651	11.81	5.96732e-08
8	88784	11.91	5.02471e-08
8	89924	12.01	4.16133e-08
8	91057	12.11	3.37845e-08
8	92190	12.21	2.67558e-08
8	93323	12.31	2.05102e-08
8	94456	12.41	1.50187e-08
8	95589	12.51	1.02442e-08
8	96722	12.61	6.14406e-09
8	97855	12.71	2.67022e-09
8	98988	12.81	-2.27374e-10
8	100121	12.91	-2.60059e-09
8	101262	13.01	-4.50058e-09
8	102849	13.11	-5.97851e-09
8	103982	13.21	-7.08376e-09
8	105115	13.31	-7.86322e-09
8	106248	13.41	-8.36167e-09
8	107381	13.51	-8.62066e-09
8	108514	13.61	-8.67857e-09
8	109647	13.71	-8.57057e-09
8	110780	13.81	-8.32792e-09
8	111913	13.91	-7.97975e-09
8	113053	14.01	-7.55058e-09
8	114186	14.11	-7.06351e-09
8	115319	14.21	-6.53699e-09
8	116452	14.31	-5.98774e-09
8	117585	14.41	-5.42997e-09
8	118718	14.51	-4.87468e-09
8	119851	14.61	-4.33182e-09
8	120984	14.71	-3.80886e-09
8	122117	14.81	-3.31148e-09
8	123250	14.91	-2.84395e-09
8	124390	15.01	-2.40981e-09
8	125523	15.11	-2.01013e-09
8	126656	15.21	-1.64633e-09
8	127789	15.31	-1.31806e-09
8	128922	15.41	-1.02531e-09
8	130055	15.51	-7.66676e-10
8	131188	15.61	-5.40723e-10
8	132321	15.71	-3.46034e-10
8	133454	15.81	-1.79767e-10
8	134587	15.91	-4.01457e-11
8	135727	16.01	7.49623e-11
8	136860	16.11	1.68043e-10
8	137993	16.21	2.41585e-10
8	139126	16.31	2.97362e-10
8	140259	16.41	3.37863e-10
8	141392	16.51	3.64864e-10
8	142525	16.61	3.80851e-10
8	143658	16.71	3.86891e-10
8	144791	16.81	3.84759e-10
8	145924	16.91	3.76232e-10
8	147064	17.01	3.62377e-10
8	148197	17.11	3.44613e-10
8	149330	17.21	3.24007e-10
8	150463	17.31	3.00915e-10
8	151596	17.41	2.76756e-10
8	152729	17.51	2.52243e-10
8	153862	17.61	2.27374e-10
8	154995	17.71	2.0286e-10
8	156128	17.81	1.79057e-10
8	157261	17.91	1.56319e-10
8	158401	18.01	1.35003e-10
8	159534	18.11	1.15108e-10
8	160667	18.21	9.66338e-11
8	161800	18.31	7.99361e-11
8	162933	18.41	6.46594e-11
8	164066	18.51	5.08038e-11
8	165199	18.61	3.83693e-11
8	166332	18.71	2.73559e-11
8	167465	18.81	1.77636e-11
8	168598	18.91	9.59233e-12
8	169738	19.01	2.84217e-12
8	170871	19.11	-2.84217e-12
8	172004	19.21	-7.4607e-12
8	173137	19.31	-1.13687e-11
8	174270	19.41	-1.42109e-11
8	175403	19.51	-1.63425e-11
8	176536	19.61	-1.77636e-11
8	177669	19.71	-1.84741e-11
8	178802	19.81	-1.88294e-11
8	179935	19.91	-1.88294e-11
8	181075	20.01	-1.88294e-11
8	182208	20.11	-1.81188e-11
8	183341	20.21	-1.7053e-11
8	184474	20.31	-1.63425e-11
8	185607	20.41	-1.52767e-11
8	186740	20.51	-1.45661e-11
8	187873	20.61	-1.35003e-11
8	189006	20.71	-1.27898e-11
8	190139	20.81	-1.1724e-11
8	191272	20.91	-1.10134e-11
8	192412	21.01	-9.9476e-12
8	193545	21.11	-9.23706e-12
8	194678	21.21	-8.17124e-12
8	195811	21.31	-7.4607e-12
8	196944	21.41	-6.39488e-12
8	198077	21.51	-5.68434e-12
8	199210	21.61	-4.61853e-12
8	200343	21.71	-3.90799e-12
8	201476	21.81	-2.84217e-12
8	202609	21.91	-2.13163e-12
8	203749	22.01	-1.06581e-12
8	204882	22.11	-3.55271e-13
8	206015	22.21	7.10543e-13
8	207148	22.31	1.42109e-12
8	208281	22.41	2.13163e-12
8	209414	22.51	2.84217e-12
8	210547	22.61	3.19744e-12
8	211680	22.71	3.90799e-12
8	212813	22.81	4.26326e-12
8	213946	22.91	4.61853e-12
8	215086	23.01	5.32907e-12
8	216219	23.11	5.68434e-12
8	217352	23.21	5.68434e-12
8	218485	23.31	6.03961e-12
8	219618	23.41	6.39488e-12
8	220751	23.51	6.75016e-12
8	221884	23.61	6.75016e-12
8	223017	23.71	7.10543e-12
8	224150	23.81	7.10543e-12
8	225283	23.91	7.4607e-12
8	226423	24.01	7.4607e-12
8	227556	24.11	7.81597e-12
8	228689	24.21	7.81597e-12
8	229822	24.31	7.81597e-12
8	230955	24.41	7.81597e-12
8	232088	24.51	8.17124e-12
8	233221	24.61	8.17124e-12
8	234354	24.71	8.17124e-12
8	235487	24.81	8.17124e-12
8	236620	24.91	8.17124e-12
8	237760	25.01	8.52651e-12
8	238893	25.11	8.52651e-12
8	240026	25.21	8.52651e-12
8	241159	25.31	8.52651e-12
8	242292	25.41	8.52651e-12
8	243425	25.51	8.52651e-12
8	244558	25.61	8.52651e-12
8	245691	25.71	8.52651e-12
8	246824	25.81	8.52651e-12
8	247957	25.91	8.52651e-12
8	249097	26.01	8.88178e-12
8	250230	26.11	8.88178e-12
8	251363	26.21	8.88178e-12
8	252496	26.31	8.88178e-12
8	253629	26.41	8.88178e-12
8	254762	26.51	8.88178e-12
8	255895	26.61	8.88178e-12
8	257028	26.71	8.88178e-12
8	258161	26.81	8.88178e-12
8	259294	26.91	8.88178e-12
8	260434	27.01	8.88178e-12
8	261567	27.11	8.88178e-12
8	262700	27.21	8.88178e-12
8	263833	27.31	8.88178e-12
8	264966	27.41	8.88178e-12
8	266099	27.51	8.88178e-12
8	267232	27.61	8.88178e-12
8	268365	27.71	8.88178e-12
8	269498	27.81	8.88178e-12
8	270631	27.91	8.88178e-12
8	271771	28.01	8.88178e-12
8	272904	28.11	8.88178e-12
8	274037	28.21	8.88178e-12
8	275170	28.31	8.88178e-12
8	276303	28.41	8.88178e-12
8	277436	28.51	8.88178e-12
8	278569	28.61	8.88178e-12
8	279702	28.71	8.88178e-12
8	280835	28.81	8.88178e-12
8	281968	28.91	8.88178e-12
8	283108	29.01	8.88178e-12
8	284241	29.11	8.88178e-12
8	285374	29.21	8.88178e-12
8	286507	29.31	8.88178e-12
8	287640	29.41	8.88178e-12
8	288773	29.51	8.88178e-12
8	289906	29.61	8.88178e-12
8	291039	29.71	8.88178e-12
8	292172	29.81	8.88178e-12
8	293305	29.91	8.88178e-12
8	294445	30.01	8.88178e-12
8	295578	30.11	8.88178e-12
8	296711	30.21	8.88178e-12
8	297844	30.31	8.88178e-12
8	298977	30.41	8.88178e-12
8	300110	30.51	8.88178e-12
8	301243	30.61	8.88178e-12
8	302376	30.71	8.88178e-12
8	303509	30.81	8.88178e-12
8	304642	30.91	8.88178e-12
8	305782	31.01	8.88178e-12
8	306915	31.11	8.88178e-12
8	308048	31.21	8.88178e-12
8	309181	31.31	8.88178e-12
8	310314	31.41	8.88178e-12
8	311447	31.51	8.88178e-12
8	312580	31.61	8.88178e-12
8	313713	31.71	8.88178e-12
8	314846	31.81	8.88178e-12
8	315979	31.91	8.88178e-12
8	317119	32.01	8.88178e-12
8	318252	32.11	8.88178e-12
8	319385	32.21	8.88178e-12
8	320518	32.31	8.88178e-12
8	321651	32.41	8.88178e-12
8	322784	32.51	8.88178e-12
8	323917	32.61	8.88178e-12
8	325050	32.71	8.88178e-12
8	326183	32.81	8.88178e-12
8	327316	32.91	8.88178e-12
8	328456	33.01	8.88178e-12
8	329589	33.11	8.88178e-12
8	330722	33.21	8.88178e-12
8	331855	33.31	8.88178e-12
8	332988	33.41	8.88178e-12
8	334121	33.51	8.88178e-12
8	335254	33.61	8.88178e-12
8	336387	33.71	8.88178e-12
8	337520	33.81	8.88178e-12
8	338653	33.91	8.88178e-12
8	339793	34.01	8.88178e-12
8	340926	34.11	8.88178e-12
8	342059	34.21	8.88178e-12
8	343192	34.31	8.88178e-12
8	344325	34.41	8.88178e-12
8	345458	34.51	8.88178e-12
8	346591	34.61	8.88178e-12
8	347724	34.71	8.88178e-12
8	348857	34.81	8.88178e-12
8	349990	34.91	8.88178e-12
8	351130	35.01	8.88178e-12
8	352263	35.11	8.88178e-12
8	353396	35.21	8.88178e-12
8	354529	35.31	8.88178e-12
8	355662	35.41	8.88178e-12
8	356795	35.51	8.88178e-12
8	357928	35.61	8.88178e-12
8	359061	35.71	8.88178e-12
8	360194	35.81	8.88178e-12
8	361327	35.91	8.88178e-12
8	362467	36.01	8.88178e-12
8	363600	36.11	8.88178e-12
8	364733	36.21	8.88178e-12
8	365866	36.31	8.88178e-12
8	366999	36.41	8.88178e-12
8	368132	36.51	8.88178e-12
8	369265	36.61	8.88178e-12
8	370398	36.71	8.88178e-12
8	371531	36.81	8.88178e-12
8	372664	36.91	8.88178e-12
8	373804	37.01	8.88178e-12
8	374937	37.11	8.88178e-12
8	376070	37.21	8.88178e-12
8	377203	37.31	8.88178e-12
8	378336	37.41	8.88178e-12
8	379469	37.51	8.88178e-12
8	380602	37.61	8.88178e-12
8	381735	37.71	8.88178e-12
8	382868	37.81	8.88178e-12
8	384001	37.91	8.88178e-12
8	385141	38.01	8.88178e-12
8	386274	38.11	8.88178e-12
8	387407	38.21	8.88178e-12
8	388540	38.31	8.88178e-12
8	389673	38.41	8.88178e-12
8	390806	38.51	8.88178e-12
8	391939	38.61	8.88178e-12
8	393072	38.71	8.88178e-12
8	394205	38.81	8.88178e-12
8	395338	38.91	8.88178e-12
8	396478	39.01	8.88178e-12
8	397611	39.11	8.88178e-12
8	398744	39.21	8.88178e-12
8	399877	39.31	8.88178e-12
8	401010	39.41	8.88178e-12
8	402143	39.51	8.88178e-12
8	403276	39.61	8.88178e-12
8	404409	39.71	8.88178e-12
8	405542	39.81	8.88178e-12
8	406675	39.91	8.88178e-12
8	407815	40.01	8.88178e-12
8	408948	40.11	8.88178e-12
8	410081	40.21	8.88178e-12
8	411214	40.31	8.88178e-12
8	412347	40.41	8.88178e-12
8	413480	40.51	8.88178e-12
8	414613	40.61	8.88178e-12
8	415746	40.71	8.88178e-12
8	416879	40.81	8.88178e-12
8	418012	40.91	8.88178e-12
8	419152	41.01	8.88178e-12
8	420285	41.11	8.88178e-12
8	421418	41.21	8.88178e-12
8	422551	41.31	8.88178e-12
8	423684	41.41	8.88178e-12
8	424817	41.51	8.88178e-12
8	425950	41.61	8.88178e-12
8	427083	41.71	8.88178e-12
8	428216	41.81	8.88178e-12
8	429349	41.91	8.88178e-12
8	430489	42.01	8.88178e-12
8	431622	42.11	8.88178e-12
8	432755	42.21	8.88178e-12
8	433888	42.31	8.88178e-12
8	435021	42.41	8.88178e-12
8	436154	42.51	8.88178e-12
8	437287	42.61	8.88178e-12
8	438420	42.71	8.88178e-12
8	439553	42.81	8.88178e-12
8	440686	42.91	8.88178e-12
8	441826	43.01	8.88178e-12
8	442959	43.11	8.88178e-12
8	444092	43.21	8.88178e-12
8	445225	43.31	8.88178e-12
8	446358	43.41	8.88178e-12
8	447491	43.51	8.88178e-12
8	448624	43.61	8.88178e-12
8	449757	43.71	8.88178e-12
8	450890	43.81	8.88178e-12
8	452023	43.91	8.88178e-12
8	453163	44.01	8.88178e-12
8	454296	44.11	8.88178e-12
8	455429	44.21	8.88178e-12
8	456562	44.31	8.88178e-12
8	457695	44.41	8.88178e-12
8	458828	44.51	8.88178e-12
8	459961	44.61	8.88178e-12
8	461094	44.71	8.88178e-12
8	462227	44.81	8.88178e-12
8	463360	44.91	8.88178e-12
8	464500	45.01	8.88178e-12
8	465633	45.11	8.88178e-12
8	466766	45.21	8.88178e-12
8	467899	45.31	8.88178e-12
8	469032	45.41	8.88178e-12
8	470165	45.51	8.88178e-12
8	471298	45.61	8.88178e-12
8	472431	45.71	8.88178e-12
8	473564	45.81	8.88178e-12
8	474697	45.91	8.88178e-12
8	475837	46.01	8.88178e-12
8	476970	46.11	8.88178e-12
8	478103	46.21	8.88178e-12
8	479236	46.31	8.88178e-12
8	480369	46.41	8.88178e-12
8	481502	46.51	8.88178e-12
8	482635	46.61	8.88178e-12
8	483768	46.71	8.88178e-12
8	484901	46.81	8.88178e-12
8	486034	46.91	8.88178e-12
8	487174	47.01	8.88178e-12
8	488307	47.11	8.88178e-12
8	489440	47.21	8.88178e-12
8	490573	47.31	8.88178e-12
8	491706	47.41	8.88178e-12
8	492839	47.51	8.88178e-12
8	493972	47.61	8.88178e-12
8	495105	47.71	8.88178e-12
8	496238	47.81	8.88178e-12
8	497371	47.91	8.88178e-12
8	498511	48.01	8.88178e-12
8	499644	48.11	8.88178e-12
8	500777	48.21	8.88178e-12
8	501910	48.31	8.88178e-12
8	503043	48.41	8.88178e-12
8	504176	48.51	8.88178e-12
8	505309	48.61	8.88178e-12
8	506442	48.71	8.88178e-12
8	507575	48.81	8.88178e-12
8	508708	48.91	8.88178e-12
8	509848	49.01	8.88178e-12
8	510981	49.11	8.88178e-12
8	512114	49.21	8.88178e-12
8	513247	49.31	8.88178e-12
8	514380	49.41	8.88178e-12
8	515513	49.51	8.88178e-12
8	516646	49.61	8.88178e-12
8	517779	49.71	8.88178e-12
8	518912	49.81	8.88178e-12
8	520045	49.91	8.88178e-12
8	521185	50.01	8.88178e-12
8	522318	50.11	8.88178e-12
8	523451	50.21	8.88178e-12
8	524584	50.31	8.88178e-12
8	525717	50.41	8.88178e-12
8	526850	50.51	8.88178e-12
8	527983	50.61	8.88178e-12
8	529116	50.71	8.88178e-12
8	530249	50.81	8.88178e-12
8	531382	50.91	8.88178e-12
8	532522	51.01	8.88178e-12
8	533655	51.11	8.88178e-12
8	534788	51.21	8.88178e-12
8	535921	51.31	8.88178e-12
8	537054	51.41	8.88178e-12
8	538187	51.51	8.88178e-12
8	539320	51.61	8.88178e-12
8	540453	51.71	8.88178e-12
8	541586	51.81	8.88178e-12
8	542719	51.91	8.88178e-12
8	543859	52.01	8.88178e-12
8	544992	52.11	8.88178e-12
8	546125	52.21	8.88178e-12
8	547258	52.31	8.88178e-12
8	548391	52.41	8.88178e-12
8	549524	52.51	8.88178e-12
8	550657	52.61	8.88178e-12
8	551790	52.71	8.88178e-12
8	552923	52.81	8.88178e-12
8	554056	52.91	8.88178e-12
8	555196	53.01	8.88178e-12
8	556329	53.11	8.88178e-12
8	557462	53.21	8.88178e-12
8	558595	53.31	8.88178e-12
8	559728	53.41	8.88178e-12
8	560861	53.51	8.88178e-12
8	561994	53.61	8.88178e-12
8	563127	53.71	8.88178e-12
8	564260	53.81	8.88178e-12
8	565393	53.91	8.88178e-12
8	566533	54.01	8.88178e-12
8	567666	54.11	8.88178e-12
8	568799	54.21	8.88178e-12
7	632	1.11	-0.000358191
7	1192	1.21	-0.000681704
7	1752	1.31	-0.00093487
7	2312	1.41	-0.00112579
7	2873	1.51	-0.00126221
7	3433	1.61	-0.00135149
7	3993	1.71	-0.00140049
7	4554	1.81	-0.00141557
7	5114	1.91	-0.00140255
7	5680	2.01	-0.00136671
7	6240	2.11	-0.0013128
7	6800	2.21	-0.00124502
7	7360	2.31	-0.0011671
7	7920	2.41	-0.00108223
7	8480	2.51	-0.000993208
7	9040	2.61	-0.000902362
7	9600	2.71	-0.000811651
7	10160	2.81	-0.000722679
7	10720	2.91	-0.000636729
7	11284	3.01	-0.0005548
7	11844	3.11	-0.000477639
7	12404	3.21	-0.000405773
7	12964	3.31	-0.00033954
7	13524	3.41	-0.000279116
7	14084	3.51	-0.000224541
7	14644	3.61	-0.000175743
7	15204	3.71	-0.00013256
7	15764	3.81	-9.47571e-05
7	16324	3.91	-6.2046e-05
7	16888	4.01	-3.40986e-05
7	17448	4.11	-1.05605e-05
7	18008	4.21	8.93844e-06
7	18568	4.31	2.4774e-05
7	19128	4.41	3.73203e-05
7	19688	4.51	4.69433e-05
7	20248	4.61	5.39956e-05
7	20808	4.71	5.88124e-05
7	21368	4.81	6.1709e-05
7	21928	4.91	6.29785e-05
7	22492	5.01	6.28903e-05
7	23052	5.11	6.169e-05
7	23612	5.21	5.95988e-05
7	24172	5.31	5.68144e-05
7	24732	5.41	5.35112e-05
7	25292	5.51	4.98416e-05
7	25852	5.61	4.59373e-05
7	26412	5.71	4.19105e-05
7	26972	5.81	3.78555e-05
7	27532	5.91	3.38499e-05
7	28097	6.01	2.99569e-05
7	28791	6.11	2.62259e-05
7	29526	6.21	2.26948e-05
7	30261	6.31	1.93911e-05
7	30997	6.41	1.6333e-05
7	31732	6.51	1.35314e-05
7	32467	6.61	1.09904e-05
7	33202	6.71	8.70882e-06
7	33937	6.81	6.6809e-06
7	34672	6.91	4.89747e-06
7	35413	7.01	3.3466e-06
7	36291	7.11	2.01432e-06
7	37217	7.21	8.85256e-07
7	38143	7.31	-5.68459e-08
7	39069	7.41	-8.28678e-07
7	39995	7.51	-1.44699e-06
7	40921	7.61	-1.92826e-06
7	41847	7.71	-2.28849e-06
7	42773	7.81	-2.54296e-06
7	43699	7.91	-2.7061e-06
7	44632	8.01	-2.79139e-06
7	45708	8.11	-2.8113e-06
7	46841	8.21	-2.77721e-06
7	47974	8.31	-2.69943e-06
7	49107	8.41	-2.58721e-06
7	50241	8.51	-2.44874e-06
7	51374	8.61	-2.29123e-06
7	52507	8.71	-2.12092e-06
7	53640	8.81	-1.94317e-06
7	54773	8.91	-1.7625e-06
7	55913	9.01	-1.58267e-06
7	57046	9.11	-1.40677e-06
7	58179	9.21	-1.23723e-06
7	59312	9.31	-1.07596e-06
7	60445	9.41	-9.24364e-07
7	61578	9.51	-7.83424e-07
7	62711	9.61	-6.53753e-07
7	63844	9.71	-5.35652e-07
7	64977	9.81	-4.2916e-07
7	66110	9.91	-3.34103e-07
7	67250	10.01	-2.5013e-07
7	68383	10.11	-1.76757e-07
7	69516	10.21	-1.13395e-07
7	70649	10.31	-5.93825e-08
7	71782	10.41	-1.40084e-08
7	72915	10.51	2.34657e-08
7	74048	10.61	5.3787e-08
7	75181	10.71	7.76954e-08
7	76314	10.81	9.59155e-08
7	77447	10.91	1.09142e-07
7	78587	11.01	1.18035e-07
7	79720	11.11	1.23212e-07
7	80853	11.21	1.2525e-07
7	81986	11.31	1.24675e-07
7	83119	11.41	1.21968e-07
7	84252	11.51	1.17559e-07
7	85385	11.61	1.11834e-07
7	86518	11.71	1.05132e-07
7	87651	11.81	9.77476e-08
7	88784	11.91	8.99373e-08
7	89924	12.01	8.19171e-08
7	91057	12.11	7.38677e-08
7	92190	12.21	6.59401e-08
7	93323	12.31	5.82538e-08
7	94456	12.41	5.09036e-08
7	95589	12.51	4.39606e-08
7	96722	12.61	3.74765e-08
7	97855	12.71	3.14852e-08
7	98988	12.81	2.60055e-08
7	100121	12.91	2.10438e-08
7	101262	13.01	1.65958e-08
7	102849	13.11	1.26498e-08
7	103982	13.21	9.18554e-09
7	105115	13.31	6.17888e-09
7	106248	13.41	3.60174e-09
7	107381	13.51	1.42322e-09
7	108514	13.61	-3.90088e-10
7	109647	13.71	-1.8705e-09
7	110780	13.81	-3.05107e-09
7	111913	13.91	-3.96518e-09
7	113053	14.01	-4.64375e-09
7	114186	14.11	-5.11768e-09
7	115319	14.21	-5.41434e-09
7	116452	14.31	-5.56071e-09
7	117585	14.41	-5.58096e-09
7	118718	14.51	-5.49747e-09
7	119851	14.61	-5.33085e-09
7	120984	14.71	-5.09743e-09
7	122117	14.81	-4.81464e-09
7	123250	14.91	-4.49667e-09
7	124390	15.01	-4.15525e-09
7	125523	15.11	-3.80034e-09
7	126656	15.21	-3.44151e-09
7	127789	15.31	-3.08518e-09
7	128922	15.41	-2.73772e-09
7	130055	15.51	-2.40306e-09
7	131188	15.61	-2.08544e-09
7	132321	15.71	-1.78773e-09
7	133454	15.81	-1.51132e-09
7	134587	15.91	-1.25766e-09
7	135727	16.01	-1.02673e-09
7	136860	16.11	-8.18901e-10
7	137993	16.21	-6.33804e-10
7	139126	16.31	-4.70735e-10
7	140259	16.41	-3.28271e-10
7	141392	16.51	-2.05702e-10
7	142525	16.61	-1.00897e-10
7	143658	16.71	-1.35003e-11
7	144791	16.81	5.82645e-11
7	145924	16.91	1.16174e-10
7	147064	17.01	1.61648e-10
7	148197	17.11	1.95755e-10
7	149330	17.21	2.20624e-10
7	150463	17.31	2.36966e-10
7	151596	17.41	2.45848e-10
7	152729	17.51	2.4869e-10
7	153862	17.61	2.46914e-10
7	154995	17.71	2.40874e-10
7	156128	17.81	2.31282e-10
7	157261	17.91	2.19913e-10
7	158401	18.01	2.05702e-10
7	159534	18.11	1.91491e-10
7	160667	18.21	1.7657e-10
7	161800	18.31	1.59872e-10
7	162933	18.41	1.44595e-10
7	164066	18.51	1.30385e-10
7	165199	18.61	1.16174e-10
7	166332	18.71	1.01963e-10
7	167465	18.81	8.7752e-11
7	168598	18.91	7.35412e-11
7	169738	19.01	6.21725e-11
7	170871	19.11	5.15143e-11
7	172004	19.21	4.08562e-11
7	173137	19.31	3.16192e-11
7	174270	19.41	2.45137e-11
7	175403	19.51	1.74083e-11
7	176536	19.61	1.03029e-11
7	177669	19.71	6.03961e-12
7	178802	19.81	2.4869e-12
7	179935	19.91	-1.06581e-12
7	181075	20.01	-4.61853e-12
7	182208	20.11	-8.17124e-12
7	183341	20.21	-8.88178e-12
7	184474	20.31	-8.88178e-12
7	185607	20.41	-8.88178e-12
7	186740	20.51	-8.88178e-12
7	187873	20.61	-8.88178e-12
7	189006	20.71	-8.88178e-12
7	190139	20.81	-8.88178e-12
7	191272	20.91	-8.88178e-12
7	192412	21.01	-8.88178e-12
7	193545	21.11	-8.88178e-12
7	194678	21.21	-8.88178e-12
7	195811	21.31	-8.88178e-12
7	196944	21.41	-8.88178e-12
7	198077	21.51	-8.88178e-12
7	199210	21.61	-8.88178e-12
7	200343	21.71	-8.88178e-12
7	201476	21.81	-8.88178e-12
7	202609	21.91	-8.88178e-12
7	203749	22.01	-8.88178e-12
7	204882	22.11	-8.88178e-12
7	206015	22.21	-8.17124e-12
7	207148	22.31	-7.4607e-12
7	208281	22.41	-6.75016e-12
7	209414	22.51	-6.03961e-12
7	210547	22.61	-5.68434e-12
7	211680	22.71	-4.9738e-12
7	212813	22.81	-4.61853e-12
7	213946	22.91	-4.26326e-12
7	215086	23.01	-3.55271e-12
7	216219	23.11	-3.19744e-12
7	217352	23.21	-3.19744e-12
7	218485	23.31	-2.84217e-12
7	219618	23.41	-2.4869e-12
7	220751	23.51	-2.13163e-12
7	221884	23.61	-2.13163e-12
7	223017	23.71	-1.77636e-12
7	224150	23.81	-1.77636e-12
7	225283	23.91	-1.42109e-12
7	226423	24.01	-1.42109e-12
7	227556	24.11	-1.06581e-12
7	228689	24.21	-1.06581e-12
7	229822	24.31	-1.06581e-12
7	230955	24.41	-1.06581e-12
7	232088	24.51	-7.10543e-13
7	233221	24.61	-7.10543e-13
7	234354	24.71	-7.10543e-13
7	235487	24.81	-7.10543e-13
7	236620	24.91	-7.10543e-13
7	237760	25.01	-3.55271e-13
7	238893	25.11	-3.55271e-13
7	240026	25.21	-3.55271e-13
7	241159	25.31	-3.55271e-13
7	242292	25.41	-3.55271e-13
7	243425	25.51	-3.55271e-13
7	244558	25.61	-3.55271e-13
7	245691	25.71	-3.55271e-13
7	246824	25.81	-3.55271e-13
7	247957	25.91	-3.55271e-13
7	249097	26.01	0
7	250230	26.11	0
7	251363	26.21	0
7	252496	26.31	0
7	253629	26.41	0
7	254762	26.51	0
7	255895	26.61	0
7	257028	26.71	0
7	258161	26.81	0
7	259294	26.91	0
7	260434	27.01	0
7	261567	27.11	0
7	262700	27.21	0
7	263833	27.31	0
7	264966	27.41	0
7	266099	27.51	0
7	267232	27.61	0
7	268365	27.71	0
7	269498	27.81	0
7	270631	27.91	0
7	271771	28.01	0
7	272904	28.11	0
7	274037	28.21	0
7	275170	28.31	0
7	276303	28.41	0
7	277436	28.51	0
7	278569	28.61	0
7	279702	28.71	0
7	280835	28.81	0
7	281968	28.91	0
7	283108	29.01	0
7	284241	29.11	0
7	285374	29.21	0
7	286507	29.31	0
7	287640	29.41	0
7	288773	29.51	0
7	289906	29.61	0
7	291039	29.71	0
7	292172	29.81	0
7	293305	29.91	0
7	294445	30.01	0
7	295578	30.11	0
7	296711	30.21	0
7	297844	30.31	0
7	298977	30.41	0
7	300110	30.51	0
7	301243	30.61	0
7	302376	30.71	0
7	303509	30.81	0
7	304642	30.91	0
7	305782	31.01	0
7	306915	31.11	0
7	308048	31.21	0
7	309181	31.31	0
7	310314	31.41	0
7	311447	31.51	0
7	312580	31.61	0
7	313713	31.71	0
7	314846	31.81	0
7	315979	31.91	0
7	317119	32.01	0
7	318252	32.11	0
7	319385	32.21	0
7	320518	32.31	0
7	321651	32.41	0
7	322784	32.51	0
7	323917	32.61	0
7	325050	32.71	0
7	326183	32.81	0
7	327316	32.91	0
7	328456	33.01	0
7	329589	33.11	0
7	330722	33.21	0
7	331855	33.31	0
7	332988	33.41	0
7	334121	33.51	0
7	335254	33.61	0
7	336387	33.71	0
7	337520	33.81	0
7	338653	33.91	0
7	339793	34.01	0
7	340926	34.11	0
7	342059	34.21	0
7	343192	34.31	0
7	344325	34.41	0
7	345458	34.51	0
7	346591	34.61	0
7	347724	34.71	0
7	348857	34.81	0
7	349990	34.91	0
7	351130	35.01	0
7	352263	35.11	0
7	353396	35.21	0
7	354529	35.31	0
7	355662	35.41	0
7	356795	35.51	0
7	357928	35.61	0
7	359061	35.71	0
7	360194	35.81	0
7	361327	35.91	0
7	362467	36.01	0
7	363600	36.11	0
7	364733	36.21	0
7	365866	36.31	0
7	366999	36.41	0
7	368132	36.51	0
7	369265	36.61	0
7	370398	36.71	0
7	371531	36.81	0
7	372664	36.91	0
7	373804	37.01	0
7	374937	37.11	0
7	376070	37.21	0
7	377203	37.31	0
7	378336	37.41	0
7	379469	37.51	0
7	380602	37.61	0
7	381735	37.71	0
7	382868	37.81	0
7	384001	37.91	0
7	385141	38.01	0
7	386274	38.11	0
7	387407	38.21	0
7	388540	38.31	0
7	389673	38.41	0
7	390806	38.51	0
7	391939	38.61	0
7	393072	38.71	0
7	394205	38.81	0
7	395338	38.91	0
7	396478	39.01	0
7	397611	39.11	0
7	398744	39.21	0
7	399877	39.31	0
7	401010	39.41	0
7	402143	39.51	0
7	403276	39.61	0
7	404409	39.71	0
7	405542	39.81	0
7	406675	39.91	0
7	407815	40.01	0
7	408948	40.11	0
7	410081	40.21	0
7	411214	40.31	0
7	412347	40.41	0
7	413480	40.51	0
7	414613	40.61	0
7	415746	40.71	0
7	416879	40.81	0
7	418012	40.91	0
7	419152	41.01	0
7	420285	41.11	0
7	421418	41.21	0
7	422551	41.31	0
7	423684	41.41	0
7	424817	41.51	0
7	425950	41.61	0
7	427083	41.71	0
7	428216	41.81	0
7	429349	41.91	0
7	430489	42.01	0
7	431622	42.11	0
7	432755	42.21	0
7	433888	42.31	0
7	435021	42.41	0
7	436154	42.51	0
7	437287	42.61	0
7	438420	42.71	0
7	439553	42.81	0
7	440686	42.91	0
7	441826	43.01	0
7	442959	43.11	0
7	444092	43.21	0
7	445225	43.31	0
7	446358	43.41	0
7	447491	43.51	0
7	448624	43.61	0
7	449757	43.71	0
7	450890	43.81	0
7	452023	43.91	0
7	453163	44.01	0
7	454296	44.11	0
7	455429	44.21	0
7	456562	44.31	0
7	457695	44.41	0
7	458828	44.51	0
7	459961	44.61	0
7	461094	44.71	0
7	462227	44.81	0
7	463360	44.91	0
7	464500	45.01	0
7	465633	45.11	0
7	466766	45.21	0
7	467899	45.31	0
7	469032	45.41	0
7	470165	45.51	0
7	471298	45.61	0
7	472431	45.71	0
7	473564	45.81	0
7	474697	45.91	0
7	475837	46.01	0
7	476970	46.11	0
7	478103	46.21	0
7	479236	46.31	0
7	480369	46.41	0
7	481502	46.51	0
7	482635	46.61	0
7	483768	46.71	0
7	484901	46.81	0
7	486034	46.91	0
7	487174	47.01	0
7	488307	47.11	0
7	489440	47.21	0
7	490573	47.31	0
7	491706	47.41	0
7	492839	47.51	0
7	493972	47.61	0
7	495105	47.71	0
7	496238	47.81	0
7	497371	47.91	0
7	498511	48.01	0
7	499644	48.11	0
7	500777	48.21	0
7	501910	48.31	0
7	503043	48.41	0
7	504176	48.51	0
7	505309	48.61	0
7	506442	48.71	0
7	507575	48.81	0
7	508708	48.91	0
7	509848	49.01	0
7	510981	49.11	0
7	512114	49.21	0
7	513247	49.31	0
7	514380	49.41	0
7	515513	49.51	0
7	516646	49.61	0
7	517779	49.71	0
7	518912	49.81	0
7	520045	49.91	0
7	521185	50.01	0
7	522318	50.11	0
7	523451	50.21	0
7	524584	50.31	0
7	525717	50.41	0
7	526850	50.51	0
7	527983	50.61	0
7	529116	50.71	0
7	530249	50.81	0
7	531382	50.91	0
7	532522	51.01	0
7	533655	51.11	0
7	534788	51.21	0
7	535921	51.31	0
7	537054	51.41	0
7	538187	51.51	0
7	539320	51.61	0
7	540453	51.71	0
7	541586	51.81	0
7	542719	51.91	0
7	543859	52.01	0
7	544992	52.11	0
7	546125	52.21	0
7	547258	52.31	0
7	548391	52.41	0
7	549524	52.51	0
7	550657	52.61	0
7	551790	52.71	0
7	552923	52.81	0
7	554056	52.91	0
7	555196	53.01	0
7	556329	53.11	0
7	557462	53.21	0
7	558595	53.31	0
7	559728	53.41	0
7	560861	53.51	0
7	561994	53.61	0
7	563127	53.71	0
7	564260	53.81	0
7	565393	53.91	0
7	566533	54.01	0
7	567666	54.11	0
7	568799	54.21	0
6	632	1.11	242.45
6	1192	1.21	242.45
6	1752	1.31	242.45
6	2312	1.41	242.45
6	2873	1.51	242.45
6	3433	1.61	242.45
6	3993	1.71	242.45
6	4554	1.81	242.45
6	5114	1.91	242.45
6	5680	2.01	242.45
6	6240	2.11	242.45
6	6800	2.21	242.45
6	7360	2.31	242.45
6	7920	2.41	242.45
6	8480	2.51	242.45
6	9040	2.61	242.45
6	9600	2.71	242.45
6	10160	2.81	242.45
6	10720	2.91	242.45
6	11284	3.01	242.45
6	11844	3.11	242.45
6	12404	3.21	242.45
6	12964	3.31	242.45
6	13524	3.41	242.45
6	14084	3.51	242.45
6	14644	3.61	242.45
6	15204	3.71	242.45
6	15764	3.81	242.45
6	16324	3.91	242.45
6	16888	4.01	242.45
6	17448	4.11	242.45
6	18008	4.21	242.45
6	18568	4.31	242.45
6	19128	4.41	242.45
6	19688	4.51	242.45
6	20248	4.61	242.45
6	20808	4.71	242.45
6	21368	4.81	242.45
6	21928	4.91	242.45
6	22492	5.01	242.45
6	23052	5.11	242.45
6	23612	5.21	242.45
6	24172	5.31	242.45
6	24732	5.41	242.45
6	25292	5.51	242.45
6	25852	5.61	242.45
6	26412	5.71	242.45
6	26972	5.81	242.45
6	27532	5.91	242.45
6	28097	6.01	242.45
6	28791	6.11	242.45
6	29526	6.21	242.45
6	30261	6.31	242.45
6	30997	6.41	242.45
6	31732	6.51	242.45
6	32467	6.61	242.45
6	33202	6.71	242.45
6	33937	6.81	242.45
6	34672	6.91	242.45
6	35413	7.01	242.45
6	36291	7.11	242.45
6	37217	7.21	242.45
6	38143	7.31	242.45
6	39069	7.41	242.45
6	39995	7.51	242.45
6	40921	7.61	242.45
6	41847	7.71	242.45
6	42773	7.81	242.45
6	43699	7.91	242.45
6	44632	8.01	242.45
6	45708	8.11	242.45
6	46841	8.21	242.45
6	47974	8.31	242.45
6	49107	8.41	242.45
6	50241	8.51	242.45
6	51374	8.61	242.45
6	52507	8.71	242.45
6	53640	8.81	242.45
6	54773	8.91	242.45
6	55913	9.01	242.45
6	57046	9.11	242.45
6	58179	9.21	242.45
6	59312	9.31	242.45
6	60445	9.41	242.45
6	61578	9.51	242.45
6	62711	9.61	242.45
6	63844	9.71	242.45
6	64977	9.81	242.45
6	66110	9.91	242.45
6	67250	10.01	242.45
6	68383	10.11	242.45
6	69516	10.21	242.45
6	70649	10.31	242.45
6	71782	10.41	242.45
6	72915	10.51	242.45
6	74048	10.61	242.45
6	75181	10.71	242.45
6	76314	10.81	242.45
6	77447	10.91	242.45
6	78587	11.01	242.45
6	79720	11.11	242.45
6	80853	11.21	242.45
6	81986	11.31	242.45
6	83119	11.41	242.45
6	84252	11.51	242.45
6	85385	11.61	242.45
6	86518	11.71	242.45
6	87651	11.81	242.45
6	88784	11.91	242.45
6	89924	12.01	242.45
6	91057	12.11	242.45
6	92190	12.21	242.45
6	93323	12.31	242.45
6	94456	12.41	242.45
6	95589	12.51	242.45
6	96722	12.61	242.45
6	97855	12.71	242.45
6	98988	12.81	242.45
6	100121	12.91	242.45
6	101262	13.01	242.45
6	102849	13.11	242.45
6	103982	13.21	242.45
6	105115	13.31	242.45
6	106248	13.41	242.45
6	107381	13.51	242.45
6	108514	13.61	242.45
6	109647	13.71	242.45
6	110780	13.81	242.45
6	111913	13.91	242.45
6	113053	14.01	242.45
6	114186	14.11	242.45
6	115319	14.21	242.45
6	116452	14.31	242.45
6	117585	14.41	242.45
6	118718	14.51	242.45
6	119851	14.61	242.45
6	120984	14.71	242.45
6	122117	14.81	242.45
6	123250	14.91	242.45
6	124390	15.01	242.45
6	125523	15.11	242.45
6	126656	15.21	242.45
6	127789	15.31	242.45
6	128922	15.41	242.45
6	130055	15.51	242.45
6	131188	15.61	242.45
6	132321	15.71	242.45
6	133454	15.81	242.45
6	134587	15.91	242.45
6	135727	16.01	242.45
6	136860	16.11	242.45
6	137993	16.21	242.45
6	139126	16.31	242.45
6	140259	16.41	242.45
6	141392	16.51	242.45
6	142525	16.61	242.45
6	143658	16.71	242.45
6	144791	16.81	242.45
6	145924	16.91	242.45
6	147064	17.01	242.45
6	148197	17.11	242.45
6	149330	17.21	242.45
6	150463	17.31	242.45
6	151596	17.41	242.45
6	152729	17.51	242.45
6	153862	17.61	242.45
6	154995	17.71	242.45
6	156128	17.81	242.45
6	157261	17.91	242.45
6	158401	18.01	242.45
6	159534	18.11	242.45
6	160667	18.21	242.45
6	161800	18.31	242.45
6	162933	18.41	242.45
6	164066	18.51	242.45
6	165199	18.61	242.45
6	166332	18.71	242.45
6	167465	18.81	242.45
6	168598	18.91	242.45
6	169738	19.01	242.45
6	170871	19.11	242.45
6	172004	19.21	242.45
6	173137	19.31	242.45
6	174270	19.41	242.45
6	175403	19.51	242.45
6	176536	19.61	242.45
6	177669	19.71	242.45
6	178802	19.81	242.45
6	179935	19.91	242.45
6	181075	20.01	242.45
6	182208	20.11	242.45
6	183341	20.21	242.45
6	184474	20.31	242.45
6	185607	20.41	242.45
6	186740	20.51	242.45
6	187873	20.61	242.45
6	189006	20.71	242.45
6	190139	20.81	242.45
6	191272	20.91	242.45
6	192412	21.01	242.45
6	193545	21.11	242.45
6	194678	21.21	242.45
6	195811	21.31	242.45
6	196944	21.41	242.45
6	198077	21.51	242.45
6	199210	21.61	242.45
6	200343	21.71	242.45
6	201476	21.81	242.45
6	202609	21.91	242.45
6	203749	22.01	242.45
6	204882	22.11	242.45
6	206015	22.21	242.45
6	207148	22.31	242.45
6	208281	22.41	242.45
6	209414	22.51	242.45
6	210547	22.61	242.45
6	211680	22.71	242.45
6	212813	22.81	242.45
6	213946	22.91	242.45
6	215086	23.01	242.45
6	216219	23.11	242.45
6	217352	23.21	242.45
6	218485	23.31	242.45
6	219618	23.41	242.45
6	220751	23.51	242.45
6	221884	23.61	242.45
6	223017	23.71	242.45
6	224150	23.81	242.45
6	225283	23.91	242.45
6	226423	24.01	242.45
6	227556	24.11	242.45
6	228689	24.21	242.45
6	229822	24.31	242.45
6	230955	24.41	242.45
6	232088	24.51	242.45
6	233221	24.61	242.45
6	234354	24.71	242.45
6	235487	24.81	242.45
6	236620	24.91	242.45
6	237760	25.01	242.45
6	238893	25.11	242.45
6	240026	25.21	242.45
6	241159	25.31	242.45
6	242292	25.41	242.45
6	243425	25.51	242.45
6	244558	25.61	242.45
6	245691	25.71	242.45
6	246824	25.81	242.45
6	247957	25.91	242.45
6	249097	26.01	242.45
6	250230	26.11	242.45
6	251363	26.21	242.45
6	252496	26.31	242.45
6	253629	26.41	242.45
6	254762	26.51	242.45
6	255895	26.61	242.45
6	257028	26.71	242.45
6	258161	26.81	242.45
6	259294	26.91	242.45
6	260434	27.01	242.45
6	261567	27.11	242.45
6	262700	27.21	242.45
6	263833	27.31	242.45
6	264966	27.41	242.45
6	266099	27.51	242.45
6	267232	27.61	242.45
6	268365	27.71	242.45
6	269498	27.81	242.45
6	270631	27.91	242.45
6	271771	28.01	242.45
6	272904	28.11	242.45
6	274037	28.21	242.45
6	275170	28.31	242.45
6	276303	28.41	242.45
6	277436	28.51	242.45
6	278569	28.61	242.45
6	279702	28.71	242.45
6	280835	28.81	242.45
6	281968	28.91	242.45
6	283108	29.01	242.45
6	284241	29.11	242.45
6	285374	29.21	242.45
6	286507	29.31	242.45
6	287640	29.41	242.45
6	288773	29.51	242.45
6	289906	29.61	242.45
6	291039	29.71	242.45
6	292172	29.81	242.45
6	293305	29.91	242.45
6	294445	30.01	242.45
6	295578	30.11	242.45
6	296711	30.21	242.45
6	297844	30.31	242.45
6	298977	30.41	242.45
6	300110	30.51	242.45
6	301243	30.61	242.45
6	302376	30.71	242.45
6	303509	30.81	242.45
6	304642	30.91	242.45
6	305782	31.01	242.45
6	306915	31.11	242.45
6	308048	31.21	242.45
6	309181	31.31	242.45
6	310314	31.41	242.45
6	311447	31.51	242.45
6	312580	31.61	242.45
6	313713	31.71	242.45
6	314846	31.81	242.45
6	315979	31.91	242.45
6	317119	32.01	242.45
6	318252	32.11	242.45
6	319385	32.21	242.45
6	320518	32.31	242.45
6	321651	32.41	242.45
6	322784	32.51	242.45
6	323917	32.61	242.45
6	325050	32.71	242.45
6	326183	32.81	242.45
6	327316	32.91	242.45
6	328456	33.01	242.45
6	329589	33.11	242.45
6	330722	33.21	242.45
6	331855	33.31	242.45
6	332988	33.41	242.45
6	334121	33.51	242.45
6	335254	33.61	242.45
6	336387	33.71	242.45
6	337520	33.81	242.45
6	338653	33.91	242.45
6	339793	34.01	242.45
6	340926	34.11	242.45
6	342059	34.21	242.45
6	343192	34.31	242.45
6	344325	34.41	242.45
6	345458	34.51	242.45
6	346591	34.61	242.45
6	347724	34.71	242.45
6	348857	34.81	242.45
6	349990	34.91	242.45
6	351130	35.01	242.45
6	352263	35.11	242.45
6	353396	35.21	242.45
6	354529	35.31	242.45
6	355662	35.41	242.45
6	356795	35.51	242.45
6	357928	35.61	242.45
6	359061	35.71	242.45
6	360194	35.81	242.45
6	361327	35.91	242.45
6	362467	36.01	242.45
6	363600	36.11	242.45
6	364733	36.21	242.45
6	365866	36.31	242.45
6	366999	36.41	242.45
6	368132	36.51	242.45
6	369265	36.61	242.45
6	370398	36.71	242.45
6	371531	36.81	242.45
6	372664	36.91	242.45
6	373804	37.01	242.45
6	374937	37.11	242.45
6	376070	37.21	242.45
6	377203	37.31	242.45
6	378336	37.41	242.45
6	379469	37.51	242.45
6	380602	37.61	242.45
6	381735	37.71	242.45
6	382868	37.81	242.45
6	384001	37.91	242.45
6	385141	38.01	242.45
6	386274	38.11	242.45
6	387407	38.21	242.45
6	388540	38.31	242.45
6	389673	38.41	242.45
6	390806	38.51	242.45
6	391939	38.61	242.45
6	393072	38.71	242.45
6	394205	38.81	242.45
6	395338	38.91	242.45
6	396478	39.01	242.45
6	397611	39.11	242.45
6	398744	39.21	242.45
6	399877	39.31	242.45
6	401010	39.41	242.45
6	402143	39.51	242.45
6	403276	39.61	242.45
6	404409	39.71	242.45
6	405542	39.81	242.45
6	406675	39.91	242.45
6	407815	40.01	242.45
6	408948	40.11	242.45
6	410081	40.21	242.45
6	411214	40.31	242.45
6	412347	40.41	242.45
6	413480	40.51	242.45
6	414613	40.61	242.45
6	415746	40.71	242.45
6	416879	40.81	242.45
6	418012	40.91	242.45
6	419152	41.01	242.45
6	420285	41.11	242.45
6	421418	41.21	242.45
6	422551	41.31	242.45
6	423684	41.41	242.45
6	424817	41.51	242.45
6	425950	41.61	242.45
6	427083	41.71	242.45
6	428216	41.81	242.45
6	429349	41.91	242.45
6	430489	42.01	242.45
6	431622	42.11	242.45
6	432755	42.21	242.45
6	433888	42.31	242.45
6	435021	42.41	242.45
6	436154	42.51	242.45
6	437287	42.61	242.45
6	438420	42.71	242.45
6	439553	42.81	242.45
6	440686	42.91	242.45
6	441826	43.01	242.45
6	442959	43.11	242.45
6	444092	43.21	242.45
6	445225	43.31	242.45
6	446358	43.41	242.45
6	447491	43.51	242.45
6	448624	43.61	242.45
6	449757	43.71	242.45
6	450890	43.81	242.45
6	452023	43.91	242.45
6	453163	44.01	242.45
6	454296	44.11	242.45
6	455429	44.21	242.45
6	456562	44.31	242.45
6	457695	44.41	242.45
6	458828	44.51	242.45
6	459961	44.61	242.45
6	461094	44.71	242.45
6	462227	44.81	242.45
6	463360	44.91	242.45
6	464500	45.01	242.45
6	465633	45.11	242.45
6	466766	45.21	242.45
6	467899	45.31	242.45
6	469032	45.41	242.45
6	470165	45.51	242.45
6	471298	45.61	242.45
6	472431	45.71	242.45
6	473564	45.81	242.45
6	474697	45.91	242.45
6	475837	46.01	242.45
6	476970	46.11	242.45
6	478103	46.21	242.45
6	479236	46.31	242.45
6	480369	46.41	242.45
6	481502	46.51	242.45
6	482635	46.61	242.45
6	483768	46.71	242.45
6	484901	46.81	242.45
6	486034	46.91	242.45
6	487174	47.01	242.45
6	488307	47.11	242.45
6	489440	47.21	242.45
6	490573	47.31	242.45
6	491706	47.41	242.45
6	492839	47.51	242.45
6	493972	47.61	242.45
6	495105	47.71	242.45
6	496238	47.81	242.45
6	497371	47.91	242.45
6	498511	48.01	242.45
6	499644	48.11	242.45
6	500777	48.21	242.45
6	501910	48.31	242.45
6	503043	48.41	242.45
6	504176	48.51	242.45
6	505309	48.61	242.45
6	506442	48.71	242.45
6	507575	48.81	242.45
6	508708	48.91	242.45
6	509848	49.01	242.45
6	510981	49.11	242.45
6	512114	49.21	242.45
6	513247	49.31	242.45
6	514380	49.41	242.45
6	515513	49.51	242.45
6	516646	49.61	242.45
6	517779	49.71	242.45
6	518912	49.81	242.45
6	520045	49.91	242.45
6	521185	50.01	242.45
6	522318	50.11	242.45
6	523451	50.21	242.45
6	524584	50.31	242.45
6	525717	50.41	242.45
6	526850	50.51	242.45
6	527983	50.61	242.45
6	529116	50.71	242.45
6	530249	50.81	242.45
6	531382	50.91	242.45
6	532522	51.01	242.45
6	533655	51.11	242.45
6	534788	51.21	242.45
6	535921	51.31	242.45
6	537054	51.41	242.45
6	538187	51.51	242.45
6	539320	51.61	242.45
6	540453	51.71	242.45
6	541586	51.81	242.45
6	542719	51.91	242.45
6	543859	52.01	242.45
6	544992	52.11	242.45
6	546125	52.21	242.45
6	547258	52.31	242.45
6	548391	52.41	242.45
6	549524	52.51	242.45
6	550657	52.61	242.45
6	551790	52.71	242.45
6	552923	52.81	242.45
6	554056	52.91	242.45
6	555196	53.01	242.45
6	556329	53.11	242.45
6	557462	53.21	242.45
6	558595	53.31	242.45
6	559728	53.41	242.45
6	560861	53.51	242.45
6	561994	53.61	242.45
6	563127	53.71	242.45
6	564260	53.81	242.45
6	565393	53.91	242.45
6	566533	54.01	242.45
6	567666	54.11	242.45
6	568799	54.21	242.45
5	632	1.11	37.9402
5	1192	1.21	40.7182
5	1752	1.31	43.4962
5	2312	1.41	46.2742
5	2873	1.51	49.0521
5	3433	1.61	51.8301
5	3993	1.71	54.608
5	4554	1.81	57.386
5	5114	1.91	60.1639
5	5680	2.01	62.9418
5	6240	2.11	65.7197
5	6800	2.21	68.4975
5	7360	2.31	71.2754
5	7920	2.41	74.0532
5	8480	2.51	76.8311
5	9040	2.61	79.6089
5	9600	2.71	82.3867
5	10160	2.81	85.1645
5	10720	2.91	87.9423
5	11284	3.01	90.7201
5	11844	3.11	93.4979
5	12404	3.21	96.2757
5	12964	3.31	99.0535
5	13524	3.41	101.831
5	14084	3.51	104.609
5	14644	3.61	107.387
5	15204	3.71	110.165
5	15764	3.81	112.942
5	16324	3.91	115.72
5	16888	4.01	118.498
5	17448	4.11	121.276
5	18008	4.21	124.053
5	18568	4.31	126.831
5	19128	4.41	129.609
5	19688	4.51	132.387
5	20248	4.61	135.165
5	20808	4.71	137.942
5	21368	4.81	140.72
5	21928	4.91	143.498
5	22492	5.01	146.276
5	23052	5.11	149.053
5	23612	5.21	151.831
5	24172	5.31	154.609
5	24732	5.41	157.387
5	25292	5.51	160.165
5	25852	5.61	162.942
5	26412	5.71	165.72
5	26972	5.81	168.498
5	27532	5.91	171.276
5	28097	6.01	174.053
5	28791	6.11	176.831
5	29526	6.21	179.609
5	30261	6.31	182.387
5	30997	6.41	185.165
5	31732	6.51	187.942
5	32467	6.61	190.72
5	33202	6.71	193.498
5	33937	6.81	196.276
5	34672	6.91	199.053
5	35413	7.01	201.831
5	36291	7.11	204.609
5	37217	7.21	207.387
5	38143	7.31	210.165
5	39069	7.41	212.942
5	39995	7.51	215.72
5	40921	7.61	218.498
5	41847	7.71	221.276
5	42773	7.81	224.053
5	43699	7.91	226.831
5	44632	8.01	229.609
5	45708	8.11	232.387
5	46841	8.21	235.165
5	47974	8.31	237.942
5	49107	8.41	240.72
5	50241	8.51	243.498
5	51374	8.61	246.276
5	52507	8.71	249.053
5	53640	8.81	251.831
5	54773	8.91	254.609
5	55913	9.01	257.387
5	57046	9.11	260.165
5	58179	9.21	262.942
5	59312	9.31	265.72
5	60445	9.41	268.498
5	61578	9.51	271.276
5	62711	9.61	274.053
5	63844	9.71	276.831
5	64977	9.81	279.609
5	66110	9.91	282.387
5	67250	10.01	285.165
5	68383	10.11	287.942
5	69516	10.21	290.72
5	70649	10.31	293.498
5	71782	10.41	296.276
5	72915	10.51	299.054
5	74048	10.61	301.831
5	75181	10.71	304.609
5	76314	10.81	307.387
5	77447	10.91	310.165
5	78587	11.01	312.942
5	79720	11.11	315.72
5	80853	11.21	318.498
5	81986	11.31	321.276
5	83119	11.41	324.054
5	84252	11.51	326.831
5	85385	11.61	329.609
5	86518	11.71	332.387
5	87651	11.81	335.165
5	88784	11.91	337.942
5	89924	12.01	340.72
5	91057	12.11	343.498
5	92190	12.21	346.276
5	93323	12.31	349.054
5	94456	12.41	351.831
5	95589	12.51	354.609
5	96722	12.61	357.387
5	97855	12.71	360.165
5	98988	12.81	362.942
5	100121	12.91	365.72
5	101262	13.01	368.498
5	102849	13.11	371.276
5	103982	13.21	374.054
5	105115	13.31	376.831
5	106248	13.41	379.609
5	107381	13.51	382.387
5	108514	13.61	385.165
5	109647	13.71	387.942
5	110780	13.81	390.72
5	111913	13.91	393.498
5	113053	14.01	396.276
5	114186	14.11	399.054
5	115319	14.21	401.831
5	116452	14.31	404.609
5	117585	14.41	407.387
5	118718	14.51	410.165
5	119851	14.61	412.942
5	120984	14.71	415.72
5	122117	14.81	418.498
5	123250	14.91	421.276
5	124390	15.01	424.054
5	125523	15.11	426.831
5	126656	15.21	429.609
5	127789	15.31	432.387
5	128922	15.41	435.165
5	130055	15.51	437.943
5	131188	15.61	440.72
5	132321	15.71	443.498
5	133454	15.81	446.276
5	134587	15.91	449.054
5	135727	16.01	451.831
5	136860	16.11	454.609
5	137993	16.21	457.387
5	139126	16.31	460.165
5	140259	16.41	462.943
5	141392	16.51	465.72
5	142525	16.61	468.498
5	143658	16.71	471.276
5	144791	16.81	474.054
5	145924	16.91	476.831
5	147064	17.01	479.609
5	148197	17.11	482.387
5	149330	17.21	485.165
5	150463	17.31	487.943
5	151596	17.41	490.72
5	152729	17.51	493.498
5	153862	17.61	496.276
5	154995	17.71	499.054
5	156128	17.81	501.831
5	157261	17.91	504.609
5	158401	18.01	507.387
5	159534	18.11	510.165
5	160667	18.21	512.943
5	161800	18.31	515.72
5	162933	18.41	518.498
5	164066	18.51	521.276
5	165199	18.61	524.054
5	166332	18.71	526.831
5	167465	18.81	529.609
5	168598	18.91	532.387
5	169738	19.01	535.165
5	170871	19.11	537.943
5	172004	19.21	540.72
5	173137	19.31	543.498
5	174270	19.41	546.276
5	175403	19.51	549.054
5	176536	19.61	551.831
5	177669	19.71	554.609
5	178802	19.81	557.387
5	179935	19.91	560.165
5	181075	20.01	562.943
5	182208	20.11	565.72
5	183341	20.21	568.498
5	184474	20.31	571.276
5	185607	20.41	574.054
5	186740	20.51	576.832
5	187873	20.61	579.609
5	189006	20.71	582.387
5	190139	20.81	585.165
5	191272	20.91	587.943
5	192412	21.01	590.72
5	193545	21.11	593.498
5	194678	21.21	596.276
5	195811	21.31	599.054
5	196944	21.41	601.832
5	198077	21.51	604.609
5	199210	21.61	607.387
5	200343	21.71	610.165
5	201476	21.81	612.943
5	202609	21.91	615.72
5	203749	22.01	618.498
5	204882	22.11	621.276
5	206015	22.21	624.054
5	207148	22.31	626.832
5	208281	22.41	629.609
5	209414	22.51	632.387
5	210547	22.61	635.165
5	211680	22.71	637.943
5	212813	22.81	640.72
5	213946	22.91	643.498
5	215086	23.01	646.276
5	216219	23.11	649.054
5	217352	23.21	651.832
5	218485	23.31	654.609
5	219618	23.41	657.387
5	220751	23.51	660.165
5	221884	23.61	662.943
5	223017	23.71	665.72
5	224150	23.81	668.498
5	225283	23.91	671.276
5	226423	24.01	674.054
5	227556	24.11	676.832
5	228689	24.21	679.609
5	229822	24.31	682.387
5	230955	24.41	685.165
5	232088	24.51	687.943
5	233221	24.61	690.72
5	234354	24.71	693.498
5	235487	24.81	696.276
5	236620	24.91	699.054
5	237760	25.01	701.832
5	238893	25.11	704.609
5	240026	25.21	707.387
5	241159	25.31	710.165
5	242292	25.41	712.943
5	243425	25.51	715.721
5	244558	25.61	718.498
5	245691	25.71	721.276
5	246824	25.81	724.054
5	247957	25.91	726.832
5	249097	26.01	729.609
5	250230	26.11	732.387
5	251363	26.21	735.165
5	252496	26.31	737.943
5	253629	26.41	740.721
5	254762	26.51	743.498
5	255895	26.61	746.276
5	257028	26.71	749.054
5	258161	26.81	751.832
5	259294	26.91	754.609
5	260434	27.01	757.387
5	261567	27.11	760.165
5	262700	27.21	762.943
5	263833	27.31	765.721
5	264966	27.41	768.498
5	266099	27.51	771.276
5	267232	27.61	774.054
5	268365	27.71	776.832
5	269498	27.81	779.609
5	270631	27.91	782.387
5	271771	28.01	785.165
5	272904	28.11	787.943
5	274037	28.21	790.721
5	275170	28.31	793.498
5	276303	28.41	796.276
5	277436	28.51	799.054
5	278569	28.61	801.832
5	279702	28.71	804.609
5	280835	28.81	807.387
5	281968	28.91	810.165
5	283108	29.01	812.943
5	284241	29.11	815.721
5	285374	29.21	818.498
5	286507	29.31	821.276
5	287640	29.41	824.054
5	288773	29.51	826.832
5	289906	29.61	829.609
5	291039	29.71	832.387
5	292172	29.81	835.165
5	293305	29.91	837.943
5	294445	30.01	840.721
5	295578	30.11	843.498
5	296711	30.21	846.276
5	297844	30.31	849.054
5	298977	30.41	851.832
5	300110	30.51	854.61
5	301243	30.61	857.387
5	302376	30.71	860.165
5	303509	30.81	862.943
5	304642	30.91	865.721
5	305782	31.01	868.498
5	306915	31.11	871.276
5	308048	31.21	874.054
5	309181	31.31	876.832
5	310314	31.41	879.61
5	311447	31.51	882.387
5	312580	31.61	885.165
5	313713	31.71	887.943
5	314846	31.81	890.721
5	315979	31.91	893.498
5	317119	32.01	896.276
5	318252	32.11	899.054
5	319385	32.21	901.832
5	320518	32.31	904.61
5	321651	32.41	907.387
5	322784	32.51	910.165
5	323917	32.61	912.943
5	325050	32.71	915.721
5	326183	32.81	918.498
5	327316	32.91	921.276
5	328456	33.01	924.054
5	329589	33.11	926.832
5	330722	33.21	929.61
5	331855	33.31	932.387
5	332988	33.41	935.165
5	334121	33.51	937.943
5	335254	33.61	940.721
5	336387	33.71	943.498
5	337520	33.81	946.276
5	338653	33.91	949.054
5	339793	34.01	951.832
5	340926	34.11	954.61
5	342059	34.21	957.387
5	343192	34.31	960.165
5	344325	34.41	962.943
5	345458	34.51	965.721
5	346591	34.61	968.498
5	347724	34.71	971.276
5	348857	34.81	974.054
5	349990	34.91	976.832
5	351130	35.01	979.61
5	352263	35.11	982.387
5	353396	35.21	985.165
5	354529	35.31	987.943
5	355662	35.41	990.721
5	356795	35.51	993.499
5	357928	35.61	996.276
5	359061	35.71	999.054
5	360194	35.81	1001.83
5	361327	35.91	1004.61
5	362467	36.01	1007.39
5	363600	36.11	1010.17
5	364733	36.21	1012.94
5	365866	36.31	1015.72
5	366999	36.41	1018.5
5	368132	36.51	1021.28
5	369265	36.61	1024.05
5	370398	36.71	1026.83
5	371531	36.81	1029.61
5	372664	36.91	1032.39
5	373804	37.01	1035.17
5	374937	37.11	1037.94
5	376070	37.21	1040.72
5	377203	37.31	1043.5
5	378336	37.41	1046.28
5	379469	37.51	1049.05
5	380602	37.61	1051.83
5	381735	37.71	1054.61
5	382868	37.81	1057.39
5	384001	37.91	1060.17
5	385141	38.01	1062.94
5	386274	38.11	1065.72
5	387407	38.21	1068.5
5	388540	38.31	1071.28
5	389673	38.41	1074.05
5	390806	38.51	1076.83
5	391939	38.61	1079.61
5	393072	38.71	1082.39
5	394205	38.81	1085.17
5	395338	38.91	1087.94
5	396478	39.01	1090.72
5	397611	39.11	1093.5
5	398744	39.21	1096.28
5	399877	39.31	1099.05
5	401010	39.41	1101.83
5	402143	39.51	1104.61
5	403276	39.61	1107.39
5	404409	39.71	1110.17
5	405542	39.81	1112.94
5	406675	39.91	1115.72
5	407815	40.01	1118.5
5	408948	40.11	1121.28
5	410081	40.21	1124.05
5	411214	40.31	1126.83
5	412347	40.41	1129.61
5	413480	40.51	1132.39
5	414613	40.61	1135.17
5	415746	40.71	1137.94
5	416879	40.81	1140.72
5	418012	40.91	1143.5
5	419152	41.01	1146.28
5	420285	41.11	1149.05
5	421418	41.21	1151.83
5	422551	41.31	1154.61
5	423684	41.41	1157.39
5	424817	41.51	1160.17
5	425950	41.61	1162.94
5	427083	41.71	1165.72
5	428216	41.81	1168.5
5	429349	41.91	1171.28
5	430489	42.01	1174.05
5	431622	42.11	1176.83
5	432755	42.21	1179.61
5	433888	42.31	1182.39
5	435021	42.41	1185.17
5	436154	42.51	1187.94
5	437287	42.61	1190.72
5	438420	42.71	1193.5
5	439553	42.81	1196.28
5	440686	42.91	1199.05
5	441826	43.01	1201.83
5	442959	43.11	1204.61
5	444092	43.21	1207.39
5	445225	43.31	1210.17
5	446358	43.41	1212.94
5	447491	43.51	1215.72
5	448624	43.61	1218.5
5	449757	43.71	1221.28
5	450890	43.81	1224.05
5	452023	43.91	1226.83
5	453163	44.01	1229.61
5	454296	44.11	1232.39
5	455429	44.21	1235.17
5	456562	44.31	1237.94
5	457695	44.41	1240.72
5	458828	44.51	1243.5
5	459961	44.61	1246.28
5	461094	44.71	1249.05
5	462227	44.81	1251.83
5	463360	44.91	1254.61
5	464500	45.01	1257.39
5	465633	45.11	1260.17
5	466766	45.21	1262.94
5	467899	45.31	1265.72
5	469032	45.41	1268.5
5	470165	45.51	1271.28
5	471298	45.61	1274.05
5	472431	45.71	1276.83
5	473564	45.81	1279.61
5	474697	45.91	1282.39
5	475837	46.01	1285.17
5	476970	46.11	1287.94
5	478103	46.21	1290.72
5	479236	46.31	1293.5
5	480369	46.41	1296.28
5	481502	46.51	1299.05
5	482635	46.61	1301.83
5	483768	46.71	1304.61
5	484901	46.81	1307.39
5	486034	46.91	1310.17
5	487174	47.01	1312.94
5	488307	47.11	1315.72
5	489440	47.21	1318.5
5	490573	47.31	1321.28
5	491706	47.41	1324.05
5	492839	47.51	1326.83
5	493972	47.61	1329.61
5	495105	47.71	1332.39
5	496238	47.81	1335.17
5	497371	47.91	1337.94
5	498511	48.01	1340.72
5	499644	48.11	1343.5
5	500777	48.21	1346.28
5	501910	48.31	1349.05
5	503043	48.41	1351.83
5	504176	48.51	1354.61
5	505309	48.61	1357.39
5	506442	48.71	1360.17
5	507575	48.81	1362.94
5	508708	48.91	1365.72
5	509848	49.01	1368.5
5	510981	49.11	1371.28
5	512114	49.21	1374.05
5	513247	49.31	1376.83
5	514380	49.41	1379.61
5	515513	49.51	1382.39
5	516646	49.61	1385.17
5	517779	49.71	1387.94
5	518912	49.81	1390.72
5	520045	49.91	1393.5
5	521185	50.01	1396.28
5	522318	50.11	1399.05
5	523451	50.21	1401.83
5	524584	50.31	1404.61
5	525717	50.41	1407.39
5	526850	50.51	1410.17
5	527983	50.61	1412.94
5	529116	50.71	1415.72
5	530249	50.81	1418.5
5	531382	50.91	1421.28
5	532522	51.01	1424.05
5	533655	51.11	1426.83
5	534788	51.21	1429.61
5	535921	51.31	1432.39
5	537054	51.41	1435.17
5	538187	51.51	1437.94
5	539320	51.61	1440.72
5	540453	51.71	1443.5
5	541586	51.81	1446.28
5	542719	51.91	1449.05
5	543859	52.01	1451.83
5	544992	52.11	1454.61
5	546125	52.21	1457.39
5	547258	52.31	1460.17
5	548391	52.41	1462.94
5	549524	52.51	1465.72
5	550657	52.61	1468.5
5	551790	52.71	1471.28
5	552923	52.81	1474.05
5	554056	52.91	1476.83
5	555196	53.01	1479.61
5	556329	53.11	1482.39
5	557462	53.21	1485.17
5	558595	53.31	1487.94
5	559728	53.41	1490.72
5	560861	53.51	1493.5
5	561994	53.61	1496.28
5	563127	53.71	1499.05
5	564260	53.81	1501.83
5	565393	53.91	1504.61
5	566533	54.01	1507.39
5	567666	54.11	1510.17
5	568799	54.21	1512.94
4	632	1.11	27.78
4	1192	1.21	27.7799
4	1752	1.31	27.7798
4	2312	1.41	27.7797
4	2873	1.51	27.7796
4	3433	1.61	27.7795
4	3993	1.71	27.7794
4	4554	1.81	27.7792
4	5114	1.91	27.7791
4	5680	2.01	27.7789
4	6240	2.11	27.7788
4	6800	2.21	27.7787
4	7360	2.31	27.7785
4	7920	2.41	27.7784
4	8480	2.51	27.7783
4	9040	2.61	27.7782
4	9600	2.71	27.7782
4	10160	2.81	27.7781
4	10720	2.91	27.778
4	11284	3.01	27.7779
4	11844	3.11	27.7779
4	12404	3.21	27.7779
4	12964	3.31	27.7778
4	13524	3.41	27.7778
4	14084	3.51	27.7778
4	14644	3.61	27.7777
4	15204	3.71	27.7777
4	15764	3.81	27.7777
4	16324	3.91	27.7777
4	16888	4.01	27.7777
4	17448	4.11	27.7777
4	18008	4.21	27.7777
4	18568	4.31	27.7777
4	19128	4.41	27.7777
4	19688	4.51	27.7777
4	20248	4.61	27.7777
4	20808	4.71	27.7777
4	21368	4.81	27.7777
4	21928	4.91	27.7777
4	22492	5.01	27.7777
4	23052	5.11	27.7777
4	23612	5.21	27.7778
4	24172	5.31	27.7778
4	24732	5.41	27.7778
4	25292	5.51	27.7778
4	25852	5.61	27.7778
4	26412	5.71	27.7778
4	26972	5.81	27.7778
4	27532	5.91	27.7778
4	28097	6.01	27.7778
4	28791	6.11	27.7778
4	29526	6.21	27.7778
4	30261	6.31	27.7778
4	30997	6.41	27.7778
4	31732	6.51	27.7778
4	32467	6.61	27.7778
4	33202	6.71	27.7778
4	33937	6.81	27.7778
4	34672	6.91	27.7778
4	35413	7.01	27.7778
4	36291	7.11	27.7778
4	37217	7.21	27.7778
4	38143	7.31	27.7778
4	39069	7.41	27.7778
4	39995	7.51	27.7778
4	40921	7.61	27.7778
4	41847	7.71	27.7778
4	42773	7.81	27.7778
4	43699	7.91	27.7778
4	44632	8.01	27.7778
4	45708	8.11	27.7778
4	46841	8.21	27.7778
4	47974	8.31	27.7778
4	49107	8.41	27.7778
4	50241	8.51	27.7778
4	51374	8.61	27.7778
4	52507	8.71	27.7778
4	53640	8.81	27.7778
4	54773	8.91	27.7778
4	55913	9.01	27.7778
4	57046	9.11	27.7778
4	58179	9.21	27.7778
4	59312	9.31	27.7778
4	60445	9.41	27.7778
4	61578	9.51	27.7778
4	62711	9.61	27.7778
4	63844	9.71	27.7778
4	64977	9.81	27.7778
4	66110	9.91	27.7778
4	67250	10.01	27.7778
4	68383	10.11	27.7778
4	69516	10.21	27.7778
4	70649	10.31	27.7778
4	71782	10.41	27.7778
4	72915	10.51	27.7778
4	74048	10.61	27.7778
4	75181	10.71	27.7778
4	76314	10.81	27.7778
4	77447	10.91	27.7778
4	78587	11.01	27.7778
4	79720	11.11	27.7778
4	80853	11.21	27.7778
4	81986	11.31	27.7778
4	83119	11.41	27.7778
4	84252	11.51	27.7778
4	85385	11.61	27.7778
4	86518	11.71	27.7778
4	87651	11.81	27.7778
4	88784	11.91	27.7778
4	89924	12.01	27.7778
4	91057	12.11	27.7778
4	92190	12.21	27.7778
4	93323	12.31	27.7778
4	94456	12.41	27.7778
4	95589	12.51	27.7778
4	96722	12.61	27.7778
4	97855	12.71	27.7778
4	98988	12.81	27.7778
4	100121	12.91	27.7778
4	101262	13.01	27.7778
4	102849	13.11	27.7778
4	103982	13.21	27.7778
4	105115	13.31	27.7778
4	106248	13.41	27.7778
4	107381	13.51	27.7778
4	108514	13.61	27.7778
4	109647	13.71	27.7778
4	110780	13.81	27.7778
4	111913	13.91	27.7778
4	113053	14.01	27.7778
4	114186	14.11	27.7778
4	115319	14.21	27.7778
4	116452	14.31	27.7778
4	117585	14.41	27.7778
4	118718	14.51	27.7778
4	119851	14.61	27.7778
4	120984	14.71	27.7778
4	122117	14.81	27.7778
4	123250	14.91	27.7778
4	124390	15.01	27.7778
4	125523	15.11	27.7778
4	126656	15.21	27.7778
4	127789	15.31	27.7778
4	128922	15.41	27.7778
4	130055	15.51	27.7778
4	131188	15.61	27.7778
4	132321	15.71	27.7778
4	133454	15.81	27.7778
4	134587	15.91	27.7778
4	135727	16.01	27.7778
4	136860	16.11	27.7778
4	137993	16.21	27.7778
4	139126	16.31	27.7778
4	140259	16.41	27.7778
4	141392	16.51	27.7778
4	142525	16.61	27.7778
4	143658	16.71	27.7778
4	144791	16.81	27.7778
4	145924	16.91	27.7778
4	147064	17.01	27.7778
4	148197	17.11	27.7778
4	149330	17.21	27.7778
4	150463	17.31	27.7778
4	151596	17.41	27.7778
4	152729	17.51	27.7778
4	153862	17.61	27.7778
4	154995	17.71	27.7778
4	156128	17.81	27.7778
4	157261	17.91	27.7778
4	158401	18.01	27.7778
4	159534	18.11	27.7778
4	160667	18.21	27.7778
4	161800	18.31	27.7778
4	162933	18.41	27.7778
4	164066	18.51	27.7778
4	165199	18.61	27.7778
4	166332	18.71	27.7778
4	167465	18.81	27.7778
4	168598	18.91	27.7778
4	169738	19.01	27.7778
4	170871	19.11	27.7778
4	172004	19.21	27.7778
4	173137	19.31	27.7778
4	174270	19.41	27.7778
4	175403	19.51	27.7778
4	176536	19.61	27.7778
4	177669	19.71	27.7778
4	178802	19.81	27.7778
4	179935	19.91	27.7778
4	181075	20.01	27.7778
4	182208	20.11	27.7778
4	183341	20.21	27.7778
4	184474	20.31	27.7778
4	185607	20.41	27.7778
4	186740	20.51	27.7778
4	187873	20.61	27.7778
4	189006	20.71	27.7778
4	190139	20.81	27.7778
4	191272	20.91	27.7778
4	192412	21.01	27.7778
4	193545	21.11	27.7778
4	194678	21.21	27.7778
4	195811	21.31	27.7778
4	196944	21.41	27.7778
4	198077	21.51	27.7778
4	199210	21.61	27.7778
4	200343	21.71	27.7778
4	201476	21.81	27.7778
4	202609	21.91	27.7778
4	203749	22.01	27.7778
4	204882	22.11	27.7778
4	206015	22.21	27.7778
4	207148	22.31	27.7778
4	208281	22.41	27.7778
4	209414	22.51	27.7778
4	210547	22.61	27.7778
4	211680	22.71	27.7778
4	212813	22.81	27.7778
4	213946	22.91	27.7778
4	215086	23.01	27.7778
4	216219	23.11	27.7778
4	217352	23.21	27.7778
4	218485	23.31	27.7778
4	219618	23.41	27.7778
4	220751	23.51	27.7778
4	221884	23.61	27.7778
4	223017	23.71	27.7778
4	224150	23.81	27.7778
4	225283	23.91	27.7778
4	226423	24.01	27.7778
4	227556	24.11	27.7778
4	228689	24.21	27.7778
4	229822	24.31	27.7778
4	230955	24.41	27.7778
4	232088	24.51	27.7778
4	233221	24.61	27.7778
4	234354	24.71	27.7778
4	235487	24.81	27.7778
4	236620	24.91	27.7778
4	237760	25.01	27.7778
4	238893	25.11	27.7778
4	240026	25.21	27.7778
4	241159	25.31	27.7778
4	242292	25.41	27.7778
4	243425	25.51	27.7778
4	244558	25.61	27.7778
4	245691	25.71	27.7778
4	246824	25.81	27.7778
4	247957	25.91	27.7778
4	249097	26.01	27.7778
4	250230	26.11	27.7778
4	251363	26.21	27.7778
4	252496	26.31	27.7778
4	253629	26.41	27.7778
4	254762	26.51	27.7778
4	255895	26.61	27.7778
4	257028	26.71	27.7778
4	258161	26.81	27.7778
4	259294	26.91	27.7778
4	260434	27.01	27.7778
4	261567	27.11	27.7778
4	262700	27.21	27.7778
4	263833	27.31	27.7778
4	264966	27.41	27.7778
4	266099	27.51	27.7778
4	267232	27.61	27.7778
4	268365	27.71	27.7778
4	269498	27.81	27.7778
4	270631	27.91	27.7778
4	271771	28.01	27.7778
4	272904	28.11	27.7778
4	274037	28.21	27.7778
4	275170	28.31	27.7778
4	276303	28.41	27.7778
4	277436	28.51	27.7778
4	278569	28.61	27.7778
4	279702	28.71	27.7778
4	280835	28.81	27.7778
4	281968	28.91	27.7778
4	283108	29.01	27.7778
4	284241	29.11	27.7778
4	285374	29.21	27.7778
4	286507	29.31	27.7778
4	287640	29.41	27.7778
4	288773	29.51	27.7778
4	289906	29.61	27.7778
4	291039	29.71	27.7778
4	292172	29.81	27.7778
4	293305	29.91	27.7778
4	294445	30.01	27.7778
4	295578	30.11	27.7778
4	296711	30.21	27.7778
4	297844	30.31	27.7778
4	298977	30.41	27.7778
4	300110	30.51	27.7778
4	301243	30.61	27.7778
4	302376	30.71	27.7778
4	303509	30.81	27.7778
4	304642	30.91	27.7778
4	305782	31.01	27.7778
4	306915	31.11	27.7778
4	308048	31.21	27.7778
4	309181	31.31	27.7778
4	310314	31.41	27.7778
4	311447	31.51	27.7778
4	312580	31.61	27.7778
4	313713	31.71	27.7778
4	314846	31.81	27.7778
4	315979	31.91	27.7778
4	317119	32.01	27.7778
4	318252	32.11	27.7778
4	319385	32.21	27.7778
4	320518	32.31	27.7778
4	321651	32.41	27.7778
4	322784	32.51	27.7778
4	323917	32.61	27.7778
4	325050	32.71	27.7778
4	326183	32.81	27.7778
4	327316	32.91	27.7778
4	328456	33.01	27.7778
4	329589	33.11	27.7778
4	330722	33.21	27.7778
4	331855	33.31	27.7778
4	332988	33.41	27.7778
4	334121	33.51	27.7778
4	335254	33.61	27.7778
4	336387	33.71	27.7778
4	337520	33.81	27.7778
4	338653	33.91	27.7778
4	339793	34.01	27.7778
4	340926	34.11	27.7778
4	342059	34.21	27.7778
4	343192	34.31	27.7778
4	344325	34.41	27.7778
4	345458	34.51	27.7778
4	346591	34.61	27.7778
4	347724	34.71	27.7778
4	348857	34.81	27.7778
4	349990	34.91	27.7778
4	351130	35.01	27.7778
4	352263	35.11	27.7778
4	353396	35.21	27.7778
4	354529	35.31	27.7778
4	355662	35.41	27.7778
4	356795	35.51	27.7778
4	357928	35.61	27.7778
4	359061	35.71	27.7778
4	360194	35.81	27.7778
4	361327	35.91	27.7778
4	362467	36.01	27.7778
4	363600	36.11	27.7778
4	364733	36.21	27.7778
4	365866	36.31	27.7778
4	366999	36.41	27.7778
4	368132	36.51	27.7778
4	369265	36.61	27.7778
4	370398	36.71	27.7778
4	371531	36.81	27.7778
4	372664	36.91	27.7778
4	373804	37.01	27.7778
4	374937	37.11	27.7778
4	376070	37.21	27.7778
4	377203	37.31	27.7778
4	378336	37.41	27.7778
4	379469	37.51	27.7778
4	380602	37.61	27.7778
4	381735	37.71	27.7778
4	382868	37.81	27.7778
4	384001	37.91	27.7778
4	385141	38.01	27.7778
4	386274	38.11	27.7778
4	387407	38.21	27.7778
4	388540	38.31	27.7778
4	389673	38.41	27.7778
4	390806	38.51	27.7778
4	391939	38.61	27.7778
4	393072	38.71	27.7778
4	394205	38.81	27.7778
4	395338	38.91	27.7778
4	396478	39.01	27.7778
4	397611	39.11	27.7778
4	398744	39.21	27.7778
4	399877	39.31	27.7778
4	401010	39.41	27.7778
4	402143	39.51	27.7778
4	403276	39.61	27.7778
4	404409	39.71	27.7778
4	405542	39.81	27.7778
4	406675	39.91	27.7778
4	407815	40.01	27.7778
4	408948	40.11	27.7778
4	410081	40.21	27.7778
4	411214	40.31	27.7778
4	412347	40.41	27.7778
4	413480	40.51	27.7778
4	414613	40.61	27.7778
4	415746	40.71	27.7778
4	416879	40.81	27.7778
4	418012	40.91	27.7778
4	419152	41.01	27.7778
4	420285	41.11	27.7778
4	421418	41.21	27.7778
4	422551	41.31	27.7778
4	423684	41.41	27.7778
4	424817	41.51	27.7778
4	425950	41.61	27.7778
4	427083	41.71	27.7778
4	428216	41.81	27.7778
4	429349	41.91	27.7778
4	430489	42.01	27.7778
4	431622	42.11	27.7778
4	432755	42.21	27.7778
4	433888	42.31	27.7778
4	435021	42.41	27.7778
4	436154	42.51	27.7778
4	437287	42.61	27.7778
4	438420	42.71	27.7778
4	439553	42.81	27.7778
4	440686	42.91	27.7778
4	441826	43.01	27.7778
4	442959	43.11	27.7778
4	444092	43.21	27.7778
4	445225	43.31	27.7778
4	446358	43.41	27.7778
4	447491	43.51	27.7778
4	448624	43.61	27.7778
4	449757	43.71	27.7778
4	450890	43.81	27.7778
4	452023	43.91	27.7778
4	453163	44.01	27.7778
4	454296	44.11	27.7778
4	455429	44.21	27.7778
4	456562	44.31	27.7778
4	457695	44.41	27.7778
4	458828	44.51	27.7778
4	459961	44.61	27.7778
4	461094	44.71	27.7778
4	462227	44.81	27.7778
4	463360	44.91	27.7778
4	464500	45.01	27.7778
4	465633	45.11	27.7778
4	466766	45.21	27.7778
4	467899	45.31	27.7778
4	469032	45.41	27.7778
4	470165	45.51	27.7778
4	471298	45.61	27.7778
4	472431	45.71	27.7778
4	473564	45.81	27.7778
4	474697	45.91	27.7778
4	475837	46.01	27.7778
4	476970	46.11	27.7778
4	478103	46.21	27.7778
4	479236	46.31	27.7778
4	480369	46.41	27.7778
4	481502	46.51	27.7778
4	482635	46.61	27.7778
4	483768	46.71	27.7778
4	484901	46.81	27.7778
4	486034	46.91	27.7778
4	487174	47.01	27.7778
4	488307	47.11	27.7778
4	489440	47.21	27.7778
4	490573	47.31	27.7778
4	491706	47.41	27.7778
4	492839	47.51	27.7778
4	493972	47.61	27.7778
4	495105	47.71	27.7778
4	496238	47.81	27.7778
4	497371	47.91	27.7778
4	498511	48.01	27.7778
4	499644	48.11	27.7778
4	500777	48.21	27.7778
4	501910	48.31	27.7778
4	503043	48.41	27.7778
4	504176	48.51	27.7778
4	505309	48.61	27.7778
4	506442	48.71	27.7778
4	507575	48.81	27.7778
4	508708	48.91	27.7778
4	509848	49.01	27.7778
4	510981	49.11	27.7778
4	512114	49.21	27.7778
4	513247	49.31	27.7778
4	514380	49.41	27.7778
4	515513	49.51	27.7778
4	516646	49.61	27.7778
4	517779	49.71	27.7778
4	518912	49.81	27.7778
4	520045	49.91	27.7778
4	521185	50.01	27.7778
4	522318	50.11	27.7778
4	523451	50.21	27.7778
4	524584	50.31	27.7778
4	525717	50.41	27.7778
4	526850	50.51	27.7778
4	527983	50.61	27.7778
4	529116	50.71	27.7778
4	530249	50.81	27.7778
4	531382	50.91	27.7778
4	532522	51.01	27.7778
4	533655	51.11	27.7778
4	534788	51.21	27.7778
4	535921	51.31	27.7778
4	537054	51.41	27.7778
4	538187	51.51	27.7778
4	539320	51.61	27.7778
4	540453	51.71	27.7778
4	541586	51.81	27.7778
4	542719	51.91	27.7778
4	543859	52.01	27.7778
4	544992	52.11	27.7778
4	546125	52.21	27.7778
4	547258	52.31	27.7778
4	548391	52.41	27.7778
4	549524	52.51	27.7778
4	550657	52.61	27.7778
4	551790	52.71	27.7778
4	552923	52.81	27.7778
4	554056	52.91	27.7778
4	555196	53.01	27.7778
4	556329	53.11	27.7778
4	557462	53.21	27.7778
4	558595	53.31	27.7778
4	559728	53.41	27.7778
4	560861	53.51	27.7778
4	561994	53.61	27.7778
4	563127	53.71	27.7778
4	564260	53.81	27.7778
4	565393	53.91	27.7778
4	566533	54.01	27.7778
4	567666	54.11	27.7778
4	568799	54.21	27.7778
2	632	1.11	0
2	1192	1.21	0
2	1752	1.31	0
2	2312	1.41	0
2	2873	1.51	0
2	3433	1.61	0
2	3993	1.71	0
2	4554	1.81	0
2	5114	1.91	0
2	5680	2.01	0
2	6240	2.11	0
2	6800	2.21	0
2	7360	2.31	0
2	7920	2.41	0
2	8480	2.51	0
2	9040	2.61	0
2	9600	2.71	0
2	10160	2.81	0
2	10720	2.91	0
2	11284	3.01	0
2	11844	3.11	0
2	12404	3.21	0
2	12964	3.31	0
2	13524	3.41	0
2	14084	3.51	0
2	14644	3.61	0
2	15204	3.71	0
2	15764	3.81	0
2	16324	3.91	0
2	16888	4.01	0
2	17448	4.11	0
2	18008	4.21	0
2	18568	4.31	0
2	19128	4.41	0
2	19688	4.51	0
2	20248	4.61	0
2	20808	4.71	0
2	21368	4.81	0
2	21928	4.91	0
2	22492	5.01	0
2	23052	5.11	0
2	23612	5.21	0
2	24172	5.31	0
2	24732	5.41	0
2	25292	5.51	0
2	25852	5.61	0
2	26412	5.71	0
2	26972	5.81	0
2	27532	5.91	0
2	28097	6.01	0
2	28791	6.11	0
2	29526	6.21	0
2	30261	6.31	0
2	30997	6.41	0
2	31732	6.51	0
2	32467	6.61	0
2	33202	6.71	0
2	33937	6.81	0
2	34672	6.91	0
2	35413	7.01	0
2	36291	7.11	0
2	37217	7.21	0
2	38143	7.31	0
2	39069	7.41	0
2	39995	7.51	0
2	40921	7.61	0
2	41847	7.71	0
2	42773	7.81	0
2	43699	7.91	0
2	44632	8.01	0
2	45708	8.11	0
2	46841	8.21	0
2	47974	8.31	0
2	49107	8.41	0
2	50241	8.51	0
2	51374	8.61	0
2	52507	8.71	0
2	53640	8.81	0
2	54773	8.91	0
2	55913	9.01	0
2	57046	9.11	0
2	58179	9.21	0
2	59312	9.31	0
2	60445	9.41	0
2	61578	9.51	0
2	62711	9.61	0
2	63844	9.71	0
2	64977	9.81	0
2	66110	9.91	0
2	67250	10.01	0
2	68383	10.11	0
2	69516	10.21	0
2	70649	10.31	0
2	71782	10.41	0
2	72915	10.51	0
2	74048	10.61	0
2	75181	10.71	0
2	76314	10.81	0
2	77447	10.91	0
2	78587	11.01	0
2	79720	11.11	0
2	80853	11.21	0
2	81986	11.31	0
2	83119	11.41	0
2	84252	11.51	0
2	85385	11.61	0
2	86518	11.71	0
2	87651	11.81	0
2	88784	11.91	0
2	89924	12.01	0
2	91057	12.11	0
2	92190	12.21	0
2	93323	12.31	0
2	94456	12.41	0
2	95589	12.51	0
2	96722	12.61	0
2	97855	12.71	0
2	98988	12.81	0
2	100121	12.91	0
2	101262	13.01	0
2	102849	13.11	0
2	103982	13.21	0
2	105115	13.31	0
2	106248	13.41	0
2	107381	13.51	0
2	108514	13.61	0
2	109647	13.71	0
2	110780	13.81	0
2	111913	13.91	0
2	113053	14.01	0
2	114186	14.11	0
2	115319	14.21	0
2	116452	14.31	0
2	117585	14.41	0
2	118718	14.51	0
2	119851	14.61	0
2	120984	14.71	0
2	122117	14.81	0
2	123250	14.91	0
2	124390	15.01	0
2	125523	15.11	0
2	126656	15.21	0
2	127789	15.31	0
2	128922	15.41	0
2	130055	15.51	0
2	131188	15.61	0
2	132321	15.71	0
2	133454	15.81	0
2	134587	15.91	0
2	135727	16.01	0
2	136860	16.11	0
2	137993	16.21	0
2	139126	16.31	0
2	140259	16.41	0
2	141392	16.51	0
2	142525	16.61	0
2	143658	16.71	0
2	144791	16.81	0
2	145924	16.91	0
2	147064	17.01	0
2	148197	17.11	0
2	149330	17.21	0
2	150463	17.31	0
2	151596	17.41	0
2	152729	17.51	0
2	153862	17.61	0
2	154995	17.71	0
2	156128	17.81	0
2	157261	17.91	0
2	158401	18.01	0
2	159534	18.11	0
2	160667	18.21	0
2	161800	18.31	0
2	162933	18.41	0
2	164066	18.51	0
2	165199	18.61	0
2	166332	18.71	0
2	167465	18.81	0
2	168598	18.91	0
2	169738	19.01	0
2	170871	19.11	0
2	172004	19.21	0
2	173137	19.31	0
2	174270	19.41	0
2	175403	19.51	0
2	176536	19.61	0
2	177669	19.71	0
2	178802	19.81	0
2	179935	19.91	0
2	181075	20.01	0
2	182208	20.11	0
2	183341	20.21	0
2	184474	20.31	0
2	185607	20.41	0
2	186740	20.51	0
2	187873	20.61	0
2	189006	20.71	0
2	190139	20.81	0
2	191272	20.91	0
2	192412	21.01	0
2	193545	21.11	0
2	194678	21.21	0
2	195811	21.31	0
2	196944	21.41	0
2	198077	21.51	0
2	199210	21.61	0
2	200343	21.71	0
2	201476	21.81	0
2	202609	21.91	0
2	203749	22.01	0
2	204882	22.11	0
2	206015	22.21	0
2	207148	22.31	0
2	208281	22.41	0
2	209414	22.51	0
2	210547	22.61	0
2	211680	22.71	0
2	212813	22.81	0
2	213946	22.91	0
2	215086	23.01	0
2	216219	23.11	0
2	217352	23.21	0
2	218485	23.31	0
2	219618	23.41	0
2	220751	23.51	0
2	221884	23.61	0
2	223017	23.71	0
2	224150	23.81	0
2	225283	23.91	0
2	226423	24.01	0
2	227556	24.11	0
2	228689	24.21	0
2	229822	24.31	0
2	230955	24.41	0
2	232088	24.51	0
2	233221	24.61	0
2	234354	24.71	0
2	235487	24.81	0
2	236620	24.91	0
2	237760	25.01	0
2	238893	25.11	0
2	240026	25.21	0
2	241159	25.31	0
2	242292	25.41	0
2	243425	25.51	0
2	244558	25.61	0
2	245691	25.71	0
2	246824	25.81	0
2	247957	25.91	0
2	249097	26.01	0
2	250230	26.11	0
2	251363	26.21	0
2	252496	26.31	0
2	253629	26.41	0
2	254762	26.51	0
2	255895	26.61	0
2	257028	26.71	0
2	258161	26.81	0
2	259294	26.91	0
2	260434	27.01	0
2	261567	27.11	0
2	262700	27.21	0
2	263833	27.31	0
2	264966	27.41	0
2	266099	27.51	0
2	267232	27.61	0
2	268365	27.71	0
2	269498	27.81	0
2	270631	27.91	0
2	271771	28.01	0
2	272904	28.11	0
2	274037	28.21	0
2	275170	28.31	0
2	276303	28.41	0
2	277436	28.51	0
2	278569	28.61	0
2	279702	28.71	0
2	280835	28.81	0
2	281968	28.91	0
2	283108	29.01	0
2	284241	29.11	0
2	285374	29.21	0
2	286507	29.31	0
2	287640	29.41	0
2	288773	29.51	0
2	289906	29.61	0
2	291039	29.71	0
2	292172	29.81	0
2	293305	29.91	0
2	294445	30.01	0
2	295578	30.11	0
2	296711	30.21	0
2	297844	30.31	0
2	298977	30.41	0
2	300110	30.51	0
2	301243	30.61	0
2	302376	30.71	0
2	303509	30.81	0
2	304642	30.91	0
2	305782	31.01	0
2	306915	31.11	0
2	308048	31.21	0
2	309181	31.31	0
2	310314	31.41	0
2	311447	31.51	0
2	312580	31.61	0
2	313713	31.71	0
2	314846	31.81	0
2	315979	31.91	0
2	317119	32.01	0
2	318252	32.11	0
2	319385	32.21	0
2	320518	32.31	0
2	321651	32.41	0
2	322784	32.51	0
2	323917	32.61	0
2	325050	32.71	0
2	326183	32.81	0
2	327316	32.91	0
2	328456	33.01	0
2	329589	33.11	0
2	330722	33.21	0
2	331855	33.31	0
2	332988	33.41	0
2	334121	33.51	0
2	335254	33.61	0
2	336387	33.71	0
2	337520	33.81	0
2	338653	33.91	0
2	339793	34.01	0
2	340926	34.11	0
2	342059	34.21	0
2	343192	34.31	0
2	344325	34.41	0
2	345458	34.51	0
2	346591	34.61	0
2	347724	34.71	0
2	348857	34.81	0
2	349990	34.91	0
2	351130	35.01	0
2	352263	35.11	0
2	353396	35.21	0
2	354529	35.31	0
2	355662	35.41	0
2	356795	35.51	0
2	357928	35.61	0
2	359061	35.71	0
2	360194	35.81	0
2	361327	35.91	0
2	362467	36.01	0
2	363600	36.11	0
2	364733	36.21	0
2	365866	36.31	0
2	366999	36.41	0
2	368132	36.51	0
2	369265	36.61	0
2	370398	36.71	0
2	371531	36.81	0
2	372664	36.91	0
2	373804	37.01	0
2	374937	37.11	0
2	376070	37.21	0
2	377203	37.31	0
2	378336	37.41	0
2	379469	37.51	0
2	380602	37.61	0
2	381735	37.71	0
2	382868	37.81	0
2	384001	37.91	0
2	385141	38.01	0
2	386274	38.11	0
2	387407	38.21	0
2	388540	38.31	0
2	389673	38.41	0
2	390806	38.51	0
2	391939	38.61	0
2	393072	38.71	0
2	394205	38.81	0
2	395338	38.91	0
2	396478	39.01	0
2	397611	39.11	0
2	398744	39.21	0
2	399877	39.31	0
2	401010	39.41	0
2	402143	39.51	0
2	403276	39.61	0
2	404409	39.71	0
2	405542	39.81	0
2	406675	39.91	0
2	407815	40.01	0
2	408948	40.11	0
2	410081	40.21	0
2	411214	40.31	0
2	412347	40.41	0
2	413480	40.51	0
2	414613	40.61	0
2	415746	40.71	0
2	416879	40.81	0
2	418012	40.91	0
2	419152	41.01	0
2	420285	41.11	0
2	421418	41.21	0
2	422551	41.31	0
2	423684	41.41	0
2	424817	41.51	0
2	425950	41.61	0
2	427083	41.71	0
2	428216	41.81	0
2	429349	41.91	0
2	430489	42.01	0
2	431622	42.11	0
2	432755	42.21	0
2	433888	42.31	0
2	435021	42.41	0
2	436154	42.51	0
2	437287	42.61	0
2	438420	42.71	0
2	439553	42.81	0
2	440686	42.91	0
2	441826	43.01	0
2	442959	43.11	0
2	444092	43.21	0
2	445225	43.31	0
2	446358	43.41	0
2	447491	43.51	0
2	448624	43.61	0
2	449757	43.71	0
2	450890	43.81	0
2	452023	43.91	0
2	453163	44.01	0
2	454296	44.11	0
2	455429	44.21	0
2	456562	44.31	0
2	457695	44.41	0
2	458828	44.51	0
2	459961	44.61	0
2	461094	44.71	0
2	462227	44.81	0
2	463360	44.91	0
2	464500	45.01	0
2	465633	45.11	0
2	466766	45.21	0
2	467899	45.31	0
2	469032	45.41	0
2	470165	45.51	0
2	471298	45.61	0
2	472431	45.71	0
2	473564	45.81	0
2	474697	45.91	0
2	475837	46.01	0
2	476970	46.11	0
2	478103	46.21	0
2	479236	46.31	0
2	480369	46.41	0
2	481502	46.51	0
2	482635	46.61	0
2	483768	46.71	0
2	484901	46.81	0
2	486034	46.91	0
2	487174	47.01	0
2	488307	47.11	0
2	489440	47.21	0
2	490573	47.31	0
2	491706	47.41	0
2	492839	47.51	0
2	493972	47.61	0
2	495105	47.71	0
2	496238	47.81	0
2	497371	47.91	0
2	498511	48.01	0
2	499644	48.11	0
2	500777	48.21	0
2	501910	48.31	0
2	503043	48.41	0
2	504176	48.51	0
2	505309	48.61	0
2	506442	48.71	0
2	507575	48.81	0
2	508708	48.91	0
2	509848	49.01	0
2	510981	49.11	0
2	512114	49.21	0
2	513247	49.31	0
2	514380	49.41	0
2	515513	49.51	0
2	516646	49.61	0
2	517779	49.71	0
2	518912	49.81	0
2	520045	49.91	0
2	521185	50.01	0
2	522318	50.11	0
2	523451	50.21	0
2	524584	50.31	0
2	525717	50.41	0
2	526850	50.51	0
2	527983	50.61	0
2	529116	50.71	0
2	530249	50.81	0
2	531382	50.91	0
2	532522	51.01	0
2	533655	51.11	0
2	534788	51.21	0
2	535921	51.31	0
2	537054	51.41	0
2	538187	51.51	0
2	539320	51.61	0
2	540453	51.71	0
2	541586	51.81	0
2	542719	51.91	0
2	543859	52.01	0
2	544992	52.11	0
2	546125	52.21	0
2	547258	52.31	0
2	548391	52.41	0
2	549524	52.51	0
2	550657	52.61	0
2	551790	52.71	0
2	552923	52.81	0
2	554056	52.91	0
2	555196	53.01	0
2	556329	53.11	0
2	557462	53.21	0
2	558595	53.31	0
2	559728	53.41	0
2	560861	53.51	0
2	561994	53.61	0
2	563127	53.71	0
2	564260	53.81	0
2	565393	53.91	0
2	566533	54.01	0
2	567666	54.11	0
2	568799	54.21	0
1	632	1.11	-1
1	1192	1.21	-1
1	1752	1.31	-1
1	2312	1.41	-1
1	2873	1.51	-1
1	3433	1.61	-1
1	3993	1.71	-1
1	4554	1.81	-1
1	5114	1.91	-1
1	5680	2.01	-1
1	6240	2.11	-1
1	6800	2.21	-1
1	7360	2.31	-1
1	7920	2.41	-1
1	8480	2.51	-1
1	9040	2.61	-1
1	9600	2.71	-1
1	10160	2.81	-1
1	10720	2.91	-1
1	11284	3.01	-1
1	11844	3.11	-1
1	12404	3.21	-1
1	12964	3.31	-1
1	13524	3.41	-1
1	14084	3.51	-1
1	14644	3.61	-1
1	15204	3.71	-1
1	15764	3.81	-1
1	16324	3.91	-1
1	16888	4.01	-1
1	17448	4.11	-1
1	18008	4.21	-1
1	18568	4.31	-1
1	19128	4.41	-1
1	19688	4.51	-1
1	20248	4.61	-1
1	20808	4.71	-1
1	21368	4.81	-1
1	21928	4.91	-1
1	22492	5.01	-1
1	23052	5.11	-1
1	23612	5.21	-1
1	24172	5.31	-1
1	24732	5.41	-1
1	25292	5.51	-1
1	25852	5.61	-1
1	26412	5.71	-1
1	26972	5.81	-1
1	27532	5.91	-1
1	28097	6.01	-1
1	28791	6.11	-1
1	29526	6.21	-1
1	30261	6.31	-1
1	30997	6.41	-1
1	31732	6.51	-1
1	32467	6.61	-1
1	33202	6.71	-1
1	33937	6.81	-1
1	34672	6.91	-1
1	35413	7.01	-1
1	36291	7.11	-1
1	37217	7.21	-1
1	38143	7.31	-1
1	39069	7.41	-1
1	39995	7.51	-1
1	40921	7.61	-1
1	41847	7.71	-1
1	42773	7.81	-1
1	43699	7.91	-1
1	44632	8.01	-1
1	45708	8.11	-1
1	46841	8.21	-1
1	47974	8.31	-1
1	49107	8.41	-1
1	50241	8.51	-1
1	51374	8.61	-1
1	52507	8.71	-1
1	53640	8.81	-1
1	54773	8.91	-1
1	55913	9.01	-1
1	57046	9.11	-1
1	58179	9.21	-1
1	59312	9.31	-1
1	60445	9.41	-1
1	61578	9.51	-1
1	62711	9.61	-1
1	63844	9.71	-1
1	64977	9.81	-1
1	66110	9.91	-1
1	67250	10.01	-1
1	68383	10.11	-1
1	69516	10.21	-1
1	70649	10.31	-1
1	71782	10.41	-1
1	72915	10.51	-1
1	74048	10.61	-1
1	75181	10.71	-1
1	76314	10.81	-1
1	77447	10.91	-1
1	78587	11.01	-1
1	79720	11.11	-1
1	80853	11.21	-1
1	81986	11.31	-1
1	83119	11.41	-1
1	84252	11.51	-1
1	85385	11.61	-1
1	86518	11.71	-1
1	87651	11.81	-1
1	88784	11.91	-1
1	89924	12.01	-1
1	91057	12.11	-1
1	92190	12.21	-1
1	93323	12.31	-1
1	94456	12.41	-1
1	95589	12.51	-1
1	96722	12.61	-1
[...]
139	168604	18.91	177.654
139	169744	19.01	176.868
139	170877	19.11	176.073
139	172010	19.21	175.27
139	173143	19.31	174.46
139	174276	19.41	173.643
139	175409	19.51	172.821
139	176542	19.61	171.994
139	177675	19.71	171.163
139	178808	19.81	170.328
139	179941	19.91	169.491
139	181081	20.01	168.652
139	182214	20.11	167.811
139	183347	20.21	166.969
139	184480	20.31	166.126
139	185613	20.41	165.283
139	186746	20.51	164.439
139	187879	20.61	163.595
139	189012	20.71	162.752
139	190145	20.81	161.909
139	191278	20.91	161.066
139	192418	21.01	160.224
139	193551	21.11	159.382
139	194684	21.21	158.541
139	195817	21.31	157.701
139	196950	21.41	156.861
139	198083	21.51	156.022
139	199216	21.61	155.184
139	200349	21.71	154.346
139	201482	21.81	153.509
139	202615	21.91	152.672
139	203755	22.01	151.836
139	204888	22.11	151
139	206021	22.21	150.165
139	207154	22.31	149.33
139	208287	22.41	148.496
139	209420	22.51	147.662
139	210553	22.61	146.828
139	211686	22.71	145.994
139	212819	22.81	145.161
139	213952	22.91	144.327
139	215092	23.01	143.494
139	216225	23.11	142.661
139	217358	23.21	141.828
139	218491	23.31	140.995
139	219624	23.41	140.162
139	220757	23.51	139.329
139	221890	23.61	138.496
139	223023	23.71	137.663
139	224156	23.81	136.831
139	225289	23.91	135.998
139	226429	24.01	135.165
139	227562	24.11	134.332
139	228695	24.21	133.499
139	229828	24.31	132.666
139	230961	24.41	131.833
139	232094	24.51	131
139	233227	24.61	130.167
139	234360	24.71	129.334
139	235493	24.81	128.501
139	236626	24.91	127.667
139	237766	25.01	126.834
139	238899	25.11	126.001
139	240032	25.21	125.168
139	241165	25.31	124.335
139	242298	25.41	123.501
139	243431	25.51	122.668
139	244564	25.61	121.835
139	245697	25.71	121.001
139	246830	25.81	120.168
139	247963	25.91	119.335
139	249103	26.01	118.502
139	250236	26.11	117.668
139	251369	26.21	116.835
139	252502	26.31	116.002
139	253635	26.41	115.168
139	254768	26.51	114.335
139	255901	26.61	113.501
139	257034	26.71	112.668
139	258167	26.81	111.835
139	259300	26.91	111.001
139	260440	27.01	110.168
139	261573	27.11	109.335
139	262706	27.21	108.501
139	263839	27.31	107.668
139	264972	27.41	106.835
139	266105	27.51	106.001
139	267238	27.61	105.168
139	268371	27.71	104.335
139	269504	27.81	103.501
139	270637	27.91	102.668
139	271777	28.01	101.835
139	272910	28.11	101.001
139	274043	28.21	100.168
139	275176	28.31	99.3346
139	276309	28.41	98.5013
139	277442	28.51	97.6679
139	278575	28.61	96.8346
139	279708	28.71	96.0013
139	280841	28.81	95.1682
139	281974	28.91	94.3354
139	283114	29.01	93.5031
139	284247	29.11	92.6715
139	285380	29.21	91.8407
139	286513	29.31	91.0111
139	287646	29.41	90.1828
139	288779	29.51	89.3561
139	289912	29.61	88.5314
139	291045	29.71	87.7087
139	292178	29.81	86.8884
139	293311	29.91	86.0707
139	294451	30.01	85.2559
139	295584	30.11	84.4441
139	296717	30.21	83.6357
139	297850	30.31	82.8309
139	298983	30.41	82.0298
139	300116	30.51	81.2327
139	301249	30.61	80.4398
139	302382	30.71	79.6512
139	303515	30.81	78.8672
139	304648	30.91	78.0879
139	305788	31.01	77.3135
139	306921	31.11	76.5442
139	308054	31.21	75.78
139	309187	31.31	75.0212
139	310320	31.41	74.2678
139	311453	31.51	73.52
139	312586	31.61	72.7779
139	313719	31.71	72.0417
139	314852	31.81	71.3113
139	315985	31.91	70.5869
139	317125	32.01	69.8686
139	318258	32.11	69.1565
139	319391	32.21	68.4506
139	320524	32.31	67.7509
139	321657	32.41	67.0577
139	322790	32.51	66.3708
139	323923	32.61	65.6904
139	325056	32.71	65.0165
139	326189	32.81	64.3491
139	327322	32.91	63.6882
139	328462	33.01	63.034
139	329595	33.11	62.3863
139	330728	33.21	61.7453
139	331861	33.31	61.1109
139	332994	33.41	60.4832
139	334127	33.51	59.8621
139	335260	33.61	59.2477
139	336393	33.71	58.6399
139	337526	33.81	58.0388
139	338659	33.91	57.4443
139	339799	34.01	56.8565
139	340932	34.11	56.2752
139	342065	34.21	55.7006
139	343198	34.31	55.1325
139	344331	34.41	54.571
139	345464	34.51	54.016
139	346597	34.61	53.4675
139	347730	34.71	52.9255
139	348863	34.81	52.3899
139	349996	34.91	51.8607
139	351136	35.01	51.338
139	352269	35.11	50.8215
139	353402	35.21	50.3114
139	354535	35.31	49.8075
139	355668	35.41	49.3099
139	356801	35.51	48.8184
139	357934	35.61	48.3331
139	359067	35.71	47.8538
139	360200	35.81	47.3807
139	361333	35.91	46.9135
139	362473	36.01	46.4523
139	363606	36.11	45.9969
139	364739	36.21	45.5475
139	365872	36.31	45.1039
139	367005	36.41	44.666
139	368138	36.51	44.2338
139	369271	36.61	43.8073
139	370404	36.71	43.3864
139	371537	36.81	42.9711
139	372670	36.91	42.5613
139	373810	37.01	42.1569
139	374943	37.11	41.7579
139	376076	37.21	41.3643
139	377209	37.31	40.9759
139	378342	37.41	40.5928
139	379475	37.51	40.2149
139	380608	37.61	39.8421
139	381741	37.71	39.4744
139	382874	37.81	39.1117
139	384007	37.91	38.754
139	385147	38.01	38.4012
139	386280	38.11	38.0533
139	387413	38.21	37.7101
139	388546	38.31	37.3718
139	389679	38.41	37.0381
139	390812	38.51	36.7091
139	391945	38.61	36.3846
139	393078	38.71	36.0647
139	394211	38.81	35.7493
139	395344	38.91	35.4384
139	396484	39.01	35.1318
139	397617	39.11	34.8295
139	398750	39.21	34.5316
139	399883	39.31	34.2378
139	401016	39.41	33.9483
139	402149	39.51	33.6628
139	403282	39.61	33.3815
139	404415	39.71	33.1041
139	405548	39.81	32.8308
139	406681	39.91	32.5613
139	407821	40.01	32.2957
139	408954	40.11	32.034
139	410087	40.21	31.776
139	411220	40.31	31.5218
139	412353	40.41	31.2713
139	413486	40.51	31.0243
139	414619	40.61	30.781
139	415752	40.71	30.5412
139	416885	40.81	30.3049
139	418018	40.91	30.0721
139	419158	41.01	29.8426
139	420291	41.11	29.6165
139	421424	41.21	29.3938
139	422557	41.31	29.1742
139	423690	41.41	28.958
139	424823	41.51	28.7449
139	425956	41.61	28.5349
139	427089	41.71	28.3281
139	428222	41.81	28.1243
139	429355	41.91	27.9235
139	430495	42.01	27.7256
139	431628	42.11	27.5308
139	432761	42.21	27.3388
139	433894	42.31	27.1496
139	435027	42.41	26.9633
139	436160	42.51	26.7797
139	437293	42.61	26.5989
139	438426	42.71	26.4208
139	439559	42.81	26.2453
139	440692	42.91	26.0725
139	441832	43.01	25.9022
139	442965	43.11	25.7345
139	444098	43.21	25.5694
139	445231	43.31	25.4066
139	446364	43.41	25.2464
139	447497	43.51	25.0885
139	448630	43.61	24.933
139	449763	43.71	24.7799
139	450896	43.81	24.629
139	452029	43.91	24.4805
139	453169	44.01	24.3342
139	454302	44.11	24.1901
139	455435	44.21	24.0481
139	456568	44.31	23.9083
139	457701	44.41	23.7707
139	458834	44.51	23.6351
139	459967	44.61	23.5015
139	461100	44.71	23.37
139	462233	44.81	23.2405
139	463366	44.91	23.113
139	464506	45.01	22.9874
139	465639	45.11	22.8637
139	466772	45.21	22.7419
139	467905	45.31	22.6219
139	469038	45.41	22.5038
139	470171	45.51	22.3875
139	471304	45.61	22.2729
139	472437	45.71	22.1601
139	473570	45.81	22.049
139	474703	45.91	21.9396
139	475843	46.01	21.8319
139	476976	46.11	21.7258
139	478109	46.21	21.6214
139	479242	46.31	21.5185
139	480375	46.41	21.4173
139	481508	46.51	21.3176
139	482641	46.61	21.2194
139	483774	46.71	21.1227
139	484907	46.81	21.0275
139	486040	46.91	20.9337
139	487180	47.01	20.8414
139	488313	47.11	20.7506
139	489446	47.21	20.6611
139	490579	47.31	20.573
139	491712	47.41	20.4862
139	492845	47.51	20.4008
139	493978	47.61	20.3167
139	495111	47.71	20.2339
139	496244	47.81	20.1523
139	497377	47.91	20.0721
139	498517	48.01	19.993
139	499650	48.11	19.9152
139	500783	48.21	19.8386
139	501916	48.31	19.7632
139	503049	48.41	19.6889
139	504182	48.51	19.6158
139	505315	48.61	19.5438
139	506448	48.71	19.4729
139	507581	48.81	19.4031
139	508714	48.91	19.3344
139	509854	49.01	19.2668
139	510987	49.11	19.2002
139	512120	49.21	19.1346
139	513253	49.31	19.07
139	514386	49.41	19.0065
139	515519	49.51	18.9439
139	516652	49.61	18.8823
139	517785	49.71	18.8217
139	518918	49.81	18.762
139	520051	49.91	18.7032
139	521191	50.01	18.6453
139	522324	50.11	18.5884
139	523457	50.21	18.5323
139	524590	50.31	18.4771
139	525723	50.41	18.4227
139	526856	50.51	18.3692
139	527989	50.61	18.3165
139	529122	50.71	18.2647
139	530255	50.81	18.2136
139	531388	50.91	18.1634
139	532528	51.01	18.1139
139	533661	51.11	18.0652
139	534794	51.21	18.0172
139	535927	51.31	17.97
139	537060	51.41	17.9235
139	538193	51.51	17.8778
139	539326	51.61	17.8328
139	540459	51.71	17.7884
139	541592	51.81	17.7448
139	542725	51.91	17.7018
139	543865	52.01	17.6595
139	544998	52.11	17.6179
139	546131	52.21	17.5769
139	547264	52.31	17.5365
139	548397	52.41	17.4968
139	549530	52.51	17.4577
139	550663	52.61	17.4192
139	551796	52.71	17.3813
139	552929	52.81	17.344
139	554062	52.91	17.3073
139	555202	53.01	17.2712
139	556335	53.11	17.2356
139	557468	53.21	17.2005
139	558601	53.31	17.1661
139	559734	53.41	17.1321
139	560867	53.51	17.0987
139	562000	53.61	17.0658
139	563133	53.71	17.0334
139	564266	53.81	17.0016
139	565399	53.91	16.9702
139	566539	54.01	16.9393
139	567672	54.11	16.9089
139	568805	54.21	16.879
141	45714	8.11	6
141	46847	8.21	6
141	47980	8.31	6
141	49113	8.41	6
141	50247	8.51	6
141	51380	8.61	6
141	52513	8.71	6
141	53646	8.81	6
141	54779	8.91	6
141	55919	9.01	6
141	57052	9.11	6
141	58185	9.21	6
141	59318	9.31	6
141	60451	9.41	6
141	61584	9.51	6
141	62717	9.61	6
141	63850	9.71	6
141	64983	9.81	6
141	66116	9.91	6
141	67256	10.01	6
141	68389	10.11	6
141	69522	10.21	6
141	70655	10.31	6
141	71788	10.41	6
141	72921	10.51	6
141	74054	10.61	6
141	75187	10.71	6
141	76320	10.81	6
141	77453	10.91	6
141	78593	11.01	6
141	79726	11.11	6
141	80859	11.21	6
141	81992	11.31	6
141	83125	11.41	6
141	84258	11.51	6
141	85391	11.61	6
141	86524	11.71	6
141	87657	11.81	6
141	88790	11.91	6
141	89930	12.01	6
141	91063	12.11	6
141	92196	12.21	6
141	93329	12.31	6
141	94462	12.41	6
141	95595	12.51	6
141	96728	12.61	6
141	97861	12.71	6
141	98994	12.81	6
141	100127	12.91	6
141	101268	13.01	6
141	102855	13.11	6
141	103988	13.21	6
141	105121	13.31	6
141	106254	13.41	6
141	107387	13.51	6
141	108520	13.61	6
141	109653	13.71	6
141	110786	13.81	6
141	111919	13.91	6
141	113059	14.01	6
141	114192	14.11	6
141	115325	14.21	6
141	116458	14.31	6
141	117591	14.41	6
141	118724	14.51	6
141	119857	14.61	6
141	120990	14.71	6
141	122123	14.81	6
141	123256	14.91	6
141	124396	15.01	6
141	125529	15.11	6
141	126662	15.21	6
141	127795	15.31	6
141	128928	15.41	6
141	130061	15.51	6
141	131194	15.61	6
141	132327	15.71	6
141	133460	15.81	6
141	134593	15.91	6
141	135733	16.01	6
141	136866	16.11	6
141	137999	16.21	6
141	139132	16.31	6
141	140265	16.41	6
141	141398	16.51	6
141	142531	16.61	6
141	143664	16.71	6
141	144797	16.81	6
141	145930	16.91	6
141	147070	17.01	6
141	148203	17.11	6
141	149336	17.21	6
141	150469	17.31	6
141	151602	17.41	6
141	152735	17.51	6
141	153868	17.61	6
141	155001	17.71	6
141	156134	17.81	6
141	157267	17.91	6
141	158407	18.01	6
141	159540	18.11	6
141	160673	18.21	6
141	161806	18.31	6
141	162939	18.41	6
141	164072	18.51	6
141	165205	18.61	6
141	166338	18.71	6
141	167471	18.81	6
141	168604	18.91	6
141	169744	19.01	6
141	170877	19.11	6
141	172010	19.21	6
141	173143	19.31	6
141	174276	19.41	6
141	175409	19.51	6
141	176542	19.61	6
141	177675	19.71	6
141	178808	19.81	6
141	179941	19.91	6
141	181081	20.01	6
141	182214	20.11	6
141	183347	20.21	6
141	184480	20.31	6
141	185613	20.41	6
141	186746	20.51	6
141	187879	20.61	6
141	189012	20.71	6
141	190145	20.81	6
141	191278	20.91	6
141	192418	21.01	6
141	193551	21.11	6
141	194684	21.21	6
141	195817	21.31	6
141	196950	21.41	6
141	198083	21.51	6
141	199216	21.61	6
141	200349	21.71	6
141	201482	21.81	6
141	202615	21.91	6
141	203755	22.01	6
141	204888	22.11	6
141	206021	22.21	6
141	207154	22.31	6
141	208287	22.41	6
141	209420	22.51	6
141	210553	22.61	6
141	211686	22.71	6
141	212819	22.81	6
141	213952	22.91	6
141	215092	23.01	6
141	216225	23.11	6
141	217358	23.21	6
141	218491	23.31	6
141	219624	23.41	6
141	220757	23.51	6
141	221890	23.61	6
141	223023	23.71	6
141	224156	23.81	6
141	225289	23.91	6
141	226429	24.01	6
141	227562	24.11	6
141	228695	24.21	6
141	229828	24.31	6
141	230961	24.41	6
141	232094	24.51	6
141	233227	24.61	6
141	234360	24.71	6
141	235493	24.81	6
141	236626	24.91	6
141	237766	25.01	6
141	238899	25.11	6
141	240032	25.21	6
141	241165	25.31	6
141	242298	25.41	6
141	243431	25.51	6
141	244564	25.61	6
141	245697	25.71	6
141	246830	25.81	6
141	247963	25.91	6
141	249103	26.01	6
141	250236	26.11	6
141	251369	26.21	6
141	252502	26.31	6
141	253635	26.41	6
141	254768	26.51	6
141	255901	26.61	6
141	257034	26.71	6
141	258167	26.81	6
141	259300	26.91	6
141	260440	27.01	6
141	261573	27.11	6
141	262706	27.21	6
141	263839	27.31	6
141	264972	27.41	6
141	266105	27.51	6
141	267238	27.61	6
141	268371	27.71	6
141	269504	27.81	6
141	270637	27.91	6
141	271777	28.01	6
141	272910	28.11	6
141	274043	28.21	6
141	275176	28.31	6
141	276309	28.41	6
141	277442	28.51	6
141	278575	28.61	6
141	279708	28.71	6
141	280841	28.81	6
141	281974	28.91	6
141	283114	29.01	6
141	284247	29.11	6
141	285380	29.21	6
141	286513	29.31	6
141	287646	29.41	6
141	288779	29.51	6
141	289912	29.61	6
141	291045	29.71	6
141	292178	29.81	6
141	293311	29.91	6
141	294451	30.01	6
141	295584	30.11	6
141	296717	30.21	6
141	297850	30.31	6
141	298983	30.41	6
141	300116	30.51	6
141	301249	30.61	6
141	302382	30.71	6
141	303515	30.81	6
141	304648	30.91	6
141	305788	31.01	6
141	306921	31.11	6
141	308054	31.21	6
141	309187	31.31	6
141	310320	31.41	6
141	311453	31.51	6
141	312586	31.61	6
141	313719	31.71	6
141	314852	31.81	6
141	315985	31.91	6
141	317125	32.01	6
141	318258	32.11	6
141	319391	32.21	6
141	320524	32.31	6
141	321657	32.41	6
141	322790	32.51	6
141	323923	32.61	6
141	325056	32.71	6
141	326189	32.81	6
141	327322	32.91	6
141	328462	33.01	6
141	329595	33.11	6
141	330728	33.21	6
141	331861	33.31	6
141	332994	33.41	6
141	334127	33.51	6
141	335260	33.61	6
141	336393	33.71	6
141	337526	33.81	6
141	338659	33.91	6
141	339799	34.01	6
141	340932	34.11	6
141	342065	34.21	6
141	343198	34.31	6
141	344331	34.41	6
141	345464	34.51	6
141	346597	34.61	6
141	347730	34.71	6
141	348863	34.81	6
141	349996	34.91	6
141	351136	35.01	6
141	352269	35.11	6
141	353402	35.21	6
141	354535	35.31	6
141	355668	35.41	6
141	356801	35.51	6
141	357934	35.61	6
141	359067	35.71	6
141	360200	35.81	6
141	361333	35.91	6
141	362473	36.01	6
141	363606	36.11	6
141	364739	36.21	6
141	365872	36.31	6
141	367005	36.41	6
141	368138	36.51	6
141	369271	36.61	6
141	370404	36.71	6
141	371537	36.81	6
141	372670	36.91	6
141	373810	37.01	6
141	374943	37.11	6
141	376076	37.21	6
141	377209	37.31	6
141	378342	37.41	6
141	379475	37.51	6
141	380608	37.61	6
141	381741	37.71	6
141	382874	37.81	6
141	384007	37.91	6
141	385147	38.01	6
141	386280	38.11	6
141	387413	38.21	6
141	388546	38.31	6
141	389679	38.41	6
141	390812	38.51	6
141	391945	38.61	6
141	393078	38.71	6
141	394211	38.81	6
141	395344	38.91	6
141	396484	39.01	6
141	397617	39.11	6
141	398750	39.21	6
141	399883	39.31	6
141	401016	39.41	6
141	402149	39.51	6
141	403282	39.61	6
141	404415	39.71	6
141	405548	39.81	6
141	406681	39.91	6
141	407821	40.01	6
141	408954	40.11	6
141	410087	40.21	6
141	411220	40.31	6
141	412353	40.41	6
141	413486	40.51	6
141	414619	40.61	6
141	415752	40.71	6
141	416885	40.81	6
141	418018	40.91	6
141	419158	41.01	6
141	420291	41.11	6
141	421424	41.21	6
141	422557	41.31	6
141	423690	41.41	6
141	424823	41.51	6
141	425956	41.61	6
141	427089	41.71	6
141	428222	41.81	6
141	429355	41.91	6
141	430495	42.01	6
141	431628	42.11	6
141	432761	42.21	6
141	433894	42.31	6
141	435027	42.41	6
141	436160	42.51	6
141	437293	42.61	6
141	438426	42.71	6
141	439559	42.81	6
141	440692	42.91	6
141	441832	43.01	6
141	442965	43.11	6
141	444098	43.21	6
141	445231	43.31	6
141	446364	43.41	6
141	447497	43.51	6
141	448630	43.61	6
141	449763	43.71	6
141	450896	43.81	6
141	452029	43.91	6
141	453169	44.01	6
141	454302	44.11	6
141	455435	44.21	6
141	456568	44.31	6
141	457701	44.41	6
141	458834	44.51	6
141	459967	44.61	6
141	461100	44.71	6
141	462233	44.81	6
141	463366	44.91	6
141	464506	45.01	6
141	465639	45.11	6
141	466772	45.21	6
141	467905	45.31	6
141	469038	45.41	6
141	470171	45.51	6
141	471304	45.61	6
141	472437	45.71	6
141	473570	45.81	6
141	474703	45.91	6
141	475843	46.01	6
141	476976	46.11	6
141	478109	46.21	6
141	479242	46.31	6
141	480375	46.41	6
141	481508	46.51	6
141	482641	46.61	6
141	483774	46.71	6
141	484907	46.81	6
141	486040	46.91	6
141	487180	47.01	6
141	488313	47.11	6
141	489446	47.21	6
141	490579	47.31	6
141	491712	47.41	6
141	492845	47.51	6
141	493978	47.61	6
141	495111	47.71	6
141	496244	47.81	6
141	497377	47.91	6
141	498517	48.01	6
141	499650	48.11	6
141	500783	48.21	6
141	501916	48.31	6
141	503049	48.41	6
141	504182	48.51	6
141	505315	48.61	6
141	506448	48.71	6
141	507581	48.81	6
141	508714	48.91	6
141	509854	49.01	6
141	510987	49.11	6
141	512120	49.21	6
141	513253	49.31	6
141	514386	49.41	6
141	515519	49.51	6
141	516652	49.61	6
141	517785	49.71	6
141	518918	49.81	6
141	520051	49.91	6
141	521191	50.01	6
141	522324	50.11	6
141	523457	50.21	6
141	524590	50.31	6
141	525723	50.41	6
141	526856	50.51	6
141	527989	50.61	6
141	529122	50.71	6
141	530255	50.81	6
141	531388	50.91	6
141	532528	51.01	6
141	533661	51.11	6
141	534794	51.21	6
141	535927	51.31	6
141	537060	51.41	6
141	538193	51.51	6
141	539326	51.61	6
141	540459	51.71	6
141	541592	51.81	6
141	542725	51.91	6
141	543865	52.01	6
141	544998	52.11	6
141	546131	52.21	6
141	547264	52.31	6
141	548397	52.41	6
141	549530	52.51	6
141	550663	52.61	6
141	551796	52.71	6
141	552929	52.81	6
141	554062	52.91	6
141	555202	53.01	6
141	556335	53.11	6
141	557468	53.21	6
141	558601	53.31	6
141	559734	53.41	6
141	560867	53.51	6
141	562000	53.61	6
141	563133	53.71	6
141	564266	53.81	6
141	565399	53.91	6
141	566539	54.01	6
141	567672	54.11	6
141	568805	54.21	6
149	55724	9	0
149	67061	10	0
149	78398	11	0
149	89735	12	0
149	101072	13	0
149	112864	14	0
149	124201	15	0
149	135538	16	0
149	146875	17	0
149	158212	18	0
149	169549	19	0
149	180886	20	0
149	192223	21	0
149	203560	22	0
149	214897	23	0
149	226234	24	0
149	237571	25	0
149	248908	26	0
149	260245	27	0
149	271582	28	0
149	282919	29	0
149	294256	30	0
149	305593	31	0
149	316930	32	0
149	328267	33	0
149	339604	34	0
149	350941	35	0
149	362278	36	0
149	373615	37	0
149	384952	38	0
149	396289	39	0
149	407626	40	0
149	418963	41	0
149	430300	42	0
149	441637	43	0
149	452974	44	0
149	464311	45	0
149	475648	46	0
149	486985	47	0
149	498322	48	0
149	509659	49	0
149	520996	50	0
149	532333	51	0
149	543670	52	0
149	555007	53	0
149	566344	54	0
148	55724	9	0.033241
148	67061	10	0.03473
148	78398	11	0.03473
148	89735	12	0.03473
148	101072	13	0.03473
148	112864	14	0.037055
148	124201	15	0.03473
148	135538	16	0.03473
148	146875	17	0.03473
148	158212	18	0.03473
148	169549	19	0.03473
148	180886	20	0.03473
148	192223	21	0.03473
148	203560	22	0.03473
148	214897	23	0.03473
148	226234	24	0.03473
148	237571	25	0.03473
148	248908	26	0.03473
148	260245	27	0.03473
148	271582	28	0.03473
148	282919	29	0.03473
148	294256	30	0.03473
148	305593	31	0.03473
148	316930	32	0.03473
148	328267	33	0.03473
148	339604	34	0.03473
148	350941	35	0.03473
148	362278	36	0.03473
148	373615	37	0.03473
148	384952	38	0.03473
148	396289	39	0.03473
148	407626	40	0.03473
148	418963	41	0.03473
148	430300	42	0.03473
148	441637	43	0.03473
148	452974	44	0.03473
148	464311	45	0.03473
148	475648	46	0.03473
148	486985	47	0.03473
148	498322	48	0.03473
148	509659	49	0.03473
148	520996	50	0.03473
148	532333	51	0.03473
148	543670	52	0.03473
148	555007	53	0.03473
148	566344	54	0.03473
147	55724	9	6
147	67061	10	6
147	78398	11	6
147	89735	12	6
147	101072	13	6
147	112864	14	6
147	124201	15	6
147	135538	16	6
147	146875	17	6
147	158212	18	6
147	169549	19	6
147	180886	20	6
147	192223	21	6
147	203560	22	6
147	214897	23	6
147	226234	24	6
147	237571	25	6
147	248908	26	6
147	260245	27	6
147	271582	28	6
147	282919	29	6
147	294256	30	6
147	305593	31	6
147	316930	32	6
147	328267	33	6
147	339604	34	6
147	350941	35	6
147	362278	36	6
147	373615	37	6
147	384952	38	6
147	396289	39	6
147	407626	40	6
147	418963	41	6
147	430300	42	6
147	441637	43	6
147	452974	44	6
147	464311	45	6
147	475648	46	6
147	486985	47	6
147	498322	48	6
147	509659	49	6
147	520996	50	6
147	532333	51	6
147	543670	52	6
147	555007	53	6
147	566344	54	6
