version 2
run JoinManeuver-0-20190102-19:07:55-6482
attr beaconInterval 0.1
attr caccOmegaN 0.2
attr caccXi 1
attr configname JoinManeuver
attr datetime 20190102-19:07:55
attr experiment JoinManeuver
attr inifile omnetpp.ini
attr iterationvars "$nCars=4, $platoonSize=4, $nLanes=1, $caccXi=1, $caccOmegaN=0.2, $ploegH=0.5, $leaderHeadway=1.2, $leaderSpeed=100, $beaconInterval=0.1, $priority=2, $packetSize=200"
attr iterationvarsf nCars=4,platoonSize=4,nLanes=1,caccXi=1,caccOmegaN=0.2,ploegH=0.5,leaderHeadway=1.2,leaderSpeed=100,beaconInterval=0.1,priority=2,packetSize=200-
attr leaderHeadway 1.2
attr leaderSpeed 100
attr measurement "$nCars=4, $platoonSize=4, $nLanes=1, $caccXi=1, $caccOmegaN=0.2, $ploegH=0.5, $leaderHeadway=1.2, $leaderSpeed=100, $beaconInterval=0.1, $priority=2, $packetSize=200"
attr nCars 4
attr nLanes 1
attr network Highway
attr packetSize 200
attr platoonSize 4
attr ploegH 0.5
attr priority 2
attr processid 6482
attr repetition 0
attr replication #0
attr resultdir results
attr runnumber 0
attr seedset 0
param **.controllerOmegaN 0.2
param **.controllerXi 1
param **.coreDebug false
param **.debug false
param **.numberOfCars 4
param **.numberOfCarsPerPlatoon 4
param **.numberOfLanes 1
param **.numericController 0
param **.seed 0
param **.traffic.nCars 4
param **.traffic.nLanes 1
param **.traffic.platoonInsertDistance "5 m"
param **.traffic.platoonInsertHeadway "0 s"
param **.traffic.platoonInsertSpeed 100kmph
param **.traffic.platoonInsertTime "1 s"
param **.traffic.platoonLeaderHeadway 1.2s
param **.traffic.platoonSize 4
param **.traffic.platooningVType "\"vtypeauto\""
param **.traffic_type "\"JoinTrafficManager\""
param *.**.nic.mac1609_4.bitrate 6Mbps
param *.**.nic.mac1609_4.txPower 100mW
param *.**.nic.mac1609_4.useServiceChannel false
param *.**.nic.phy80211p.analogueModels "xmldoc(\"config.xml\")"
param *.**.nic.phy80211p.decider "xmldoc(\"config.xml\")"
param *.**.nic.phy80211p.maxTXPower 100mW
param *.**.nic.phy80211p.sensitivity -94dBm
param *.**.nic.phy80211p.thermalNoise -95dBm
param *.**.nic.phy80211p.usePropagationDelay true
param *.**.nic.phy80211p.useThermalNoise true
param *.annotations.draw false
param *.connectionManager.drawMaxIntfDist false
param *.connectionManager.maxInterfDist 2600m
param *.connectionManager.sendDirect true
param *.manager.autoShutdown true
param *.manager.configFile "\"./sumocfg/freeway.sumo.cfg\""
param *.manager.host "\"localhost\""
param *.manager.margin 25
param *.manager.moduleDisplayString "\"\""
param *.manager.moduleName "\"node\""
param *.manager.moduleType "\"org.car2x.veins.modules.application.platooning.PlatoonCar\""
param *.manager.updateInterval 0.01s
param *.manager.useGui true
param *.node[*].appl.joinManeuver "\"JoinAtBack\""
param *.node[*].appl_type "\"GeneralPlatooningApp\""
param *.node[*].helper_type "\"LocalPlatoonPositionHelper\""
param *.node[*].mobility.x 0
param *.node[*].mobility.y 0
param *.node[*].mobility.z 1.895
param *.node[*].prot.beaconingInterval 0.1s
param *.node[*].prot.packetSize 200
param *.node[*].prot.priority 2
param *.node[*].protocol_type "\"SimplePlatooningBeaconing\""
param *.node[*].scenario.accHeadway "0.1 s"
param *.node[*].scenario.caccC1 0.5
param *.node[*].scenario.caccOmegaN "0.2 Hz"
param *.node[*].scenario.caccXi 1
param *.node[*].scenario.controller "\"CACC\""
param *.node[*].scenario.engineTau "0.5 s"
param *.node[*].scenario.leaderHeadway 1.2s
param *.node[*].scenario.leaderSpeed 100kmph
param *.node[*].scenario.ploegH 0.5s
param *.node[*].scenario.ploegKd 0.7
param *.node[*].scenario.ploegKp 0.2
param *.node[*].scenario.useRealisticEngine false
param *.node[*].scenario_type "\"JoinManeuverScenario\""
param *.node[*].unicast.packetLossRate 0
param *.obstacles.debug false
param *.playgroundSizeX 65000m
param *.playgroundSizeY 25000m
param *.playgroundSizeZ 50m
param *.world.use2D false
param *.world.useTorus false

vector 1  Highway.node[0].appl  distance  ETV
vector 2  Highway.node[0].appl  relativeSpeed  ETV
vector 3  Highway.node[0].appl  nodeId  ETV
vector 7  Highway.node[0].appl  acceleration  ETV
vector 8  Highway.node[0].appl  controllerAcceleration  ETV
vector 4  Highway.node[0].appl  speed  ETV
vector 5  Highway.node[0].appl  posx  ETV
vector 6  Highway.node[0].appl  posy  ETV
vector 24  Highway.node[1].appl  distance  ETV
vector 25  Highway.node[1].appl  relativeSpeed  ETV
vector 26  Highway.node[1].appl  nodeId  ETV
vector 30  Highway.node[1].appl  acceleration  ETV
vector 31  Highway.node[1].appl  controllerAcceleration  ETV
vector 27  Highway.node[1].appl  speed  ETV
vector 28  Highway.node[1].appl  posx  ETV
vector 29  Highway.node[1].appl  posy  ETV
vector 47  Highway.node[2].appl  distance  ETV
vector 48  Highway.node[2].appl  relativeSpeed  ETV
vector 49  Highway.node[2].appl  nodeId  ETV
vector 53  Highway.node[2].appl  acceleration  ETV
vector 54  Highway.node[2].appl  controllerAcceleration  ETV
vector 50  Highway.node[2].appl  speed  ETV
vector 51  Highway.node[2].appl  posx  ETV
vector 52  Highway.node[2].appl  posy  ETV
vector 70  Highway.node[3].appl  distance  ETV
vector 71  Highway.node[3].appl  relativeSpeed  ETV
vector 72  Highway.node[3].appl  nodeId  ETV
vector 76  Highway.node[3].appl  acceleration  ETV
vector 77  Highway.node[3].appl  controllerAcceleration  ETV
vector 73  Highway.node[3].appl  speed  ETV
vector 74  Highway.node[3].appl  posx  ETV
vector 75  Highway.node[3].appl  posy  ETV
vector 84  Highway.node[3].prot  frontDelay  ETV
vector 82  Highway.node[3].prot  frontDelayId  ETV
vector 61  Highway.node[2].prot  frontDelay  ETV
vector 59  Highway.node[2].prot  frontDelayId  ETV
vector 37  Highway.node[1].prot  leaderDelay  ETV
vector 35  Highway.node[1].prot  leaderDelayId  ETV
vector 38  Highway.node[1].prot  frontDelay  ETV
vector 36  Highway.node[1].prot  frontDelayId  ETV
vector 60  Highway.node[2].prot  leaderDelay  ETV
vector 58  Highway.node[2].prot  leaderDelayId  ETV
vector 83  Highway.node[3].prot  leaderDelay  ETV
vector 81  Highway.node[3].prot  leaderDelayId  ETV
vector 9  Highway.node[0].prot  nodeId  ETV
vector 10  Highway.node[0].prot  busyTime  ETV
vector 11  Highway.node[0].prot  collisions  ETV
vector 32  Highway.node[1].prot  nodeId  ETV
vector 33  Highway.node[1].prot  busyTime  ETV
vector 34  Highway.node[1].prot  collisions  ETV
vector 55  Highway.node[2].prot  nodeId  ETV
vector 56  Highway.node[2].prot  busyTime  ETV
vector 57  Highway.node[2].prot  collisions  ETV
vector 78  Highway.node[3].prot  nodeId  ETV
vector 79  Highway.node[3].prot  busyTime  ETV
vector 80  Highway.node[3].prot  collisions  ETV
vector 93  Highway.node[4].appl  distance  ETV
vector 94  Highway.node[4].appl  relativeSpeed  ETV
vector 95  Highway.node[4].appl  nodeId  ETV
vector 99  Highway.node[4].appl  acceleration  ETV
vector 100  Highway.node[4].appl  controllerAcceleration  ETV
vector 96  Highway.node[4].appl  speed  ETV
vector 97  Highway.node[4].appl  posx  ETV
vector 98  Highway.node[4].appl  posy  ETV
vector 116  Highway.node[5].appl  distance  ETV
vector 117  Highway.node[5].appl  relativeSpeed  ETV
vector 118  Highway.node[5].appl  nodeId  ETV
vector 122  Highway.node[5].appl  acceleration  ETV
vector 123  Highway.node[5].appl  controllerAcceleration  ETV
vector 119  Highway.node[5].appl  speed  ETV
vector 120  Highway.node[5].appl  posx  ETV
vector 121  Highway.node[5].appl  posy  ETV
vector 139  Highway.node[6].appl  distance  ETV
vector 140  Highway.node[6].appl  relativeSpeed  ETV
vector 141  Highway.node[6].appl  nodeId  ETV
vector 145  Highway.node[6].appl  acceleration  ETV
vector 146  Highway.node[6].appl  controllerAcceleration  ETV
vector 142  Highway.node[6].appl  speed  ETV
vector 143  Highway.node[6].appl  posx  ETV
vector 144  Highway.node[6].appl  posy  ETV
vector 162  Highway.node[7].appl  distance  ETV
vector 163  Highway.node[7].appl  relativeSpeed  ETV
vector 164  Highway.node[7].appl  nodeId  ETV
vector 168  Highway.node[7].appl  acceleration  ETV
vector 169  Highway.node[7].appl  controllerAcceleration  ETV
vector 165  Highway.node[7].appl  speed  ETV
vector 166  Highway.node[7].appl  posx  ETV
vector 167  Highway.node[7].appl  posy  ETV
vector 185  Highway.node[8].appl  distance  ETV
vector 186  Highway.node[8].appl  relativeSpeed  ETV
vector 187  Highway.node[8].appl  nodeId  ETV
vector 191  Highway.node[8].appl  acceleration  ETV
vector 192  Highway.node[8].appl  controllerAcceleration  ETV
vector 188  Highway.node[8].appl  speed  ETV
vector 189  Highway.node[8].appl  posx  ETV
vector 190  Highway.node[8].appl  posy  ETV
vector 208  Highway.node[9].appl  distance  ETV
vector 209  Highway.node[9].appl  relativeSpeed  ETV
vector 210  Highway.node[9].appl  nodeId  ETV
vector 214  Highway.node[9].appl  acceleration  ETV
vector 215  Highway.node[9].appl  controllerAcceleration  ETV
vector 211  Highway.node[9].appl  speed  ETV
vector 212  Highway.node[9].appl  posx  ETV
vector 213  Highway.node[9].appl  posy  ETV
vector 231  Highway.node[10].appl  distance  ETV
vector 232  Highway.node[10].appl  relativeSpeed  ETV
vector 233  Highway.node[10].appl  nodeId  ETV
vector 237  Highway.node[10].appl  acceleration  ETV
vector 238  Highway.node[10].appl  controllerAcceleration  ETV
vector 234  Highway.node[10].appl  speed  ETV
vector 235  Highway.node[10].appl  posx  ETV
vector 236  Highway.node[10].appl  posy  ETV
vector 254  Highway.node[11].appl  distance  ETV
vector 255  Highway.node[11].appl  relativeSpeed  ETV
vector 256  Highway.node[11].appl  nodeId  ETV
vector 260  Highway.node[11].appl  acceleration  ETV
vector 261  Highway.node[11].appl  controllerAcceleration  ETV
vector 257  Highway.node[11].appl  speed  ETV
vector 258  Highway.node[11].appl  posx  ETV
vector 259  Highway.node[11].appl  posy  ETV
vector 277  Highway.node[12].appl  distance  ETV
vector 278  Highway.node[12].appl  relativeSpeed  ETV
vector 279  Highway.node[12].appl  nodeId  ETV
vector 283  Highway.node[12].appl  acceleration  ETV
vector 284  Highway.node[12].appl  controllerAcceleration  ETV
vector 280  Highway.node[12].appl  speed  ETV
vector 281  Highway.node[12].appl  posx  ETV
vector 282  Highway.node[12].appl  posy  ETV
vector 300  Highway.node[13].appl  distance  ETV
vector 301  Highway.node[13].appl  relativeSpeed  ETV
vector 302  Highway.node[13].appl  nodeId  ETV
vector 306  Highway.node[13].appl  acceleration  ETV
vector 307  Highway.node[13].appl  controllerAcceleration  ETV
vector 303  Highway.node[13].appl  speed  ETV
vector 304  Highway.node[13].appl  posx  ETV
vector 305  Highway.node[13].appl  posy  ETV
vector 323  Highway.node[14].appl  distance  ETV
vector 324  Highway.node[14].appl  relativeSpeed  ETV
vector 325  Highway.node[14].appl  nodeId  ETV
vector 329  Highway.node[14].appl  acceleration  ETV
vector 330  Highway.node[14].appl  controllerAcceleration  ETV
vector 326  Highway.node[14].appl  speed  ETV
vector 327  Highway.node[14].appl  posx  ETV
vector 328  Highway.node[14].appl  posy  ETV
vector 346  Highway.node[15].appl  distance  ETV
vector 347  Highway.node[15].appl  relativeSpeed  ETV
vector 348  Highway.node[15].appl  nodeId  ETV
vector 352  Highway.node[15].appl  acceleration  ETV
vector 353  Highway.node[15].appl  controllerAcceleration  ETV
vector 349  Highway.node[15].appl  speed  ETV
vector 350  Highway.node[15].appl  posx  ETV
vector 351  Highway.node[15].appl  posy  ETV
vector 369  Highway.node[16].appl  distance  ETV
vector 370  Highway.node[16].appl  relativeSpeed  ETV
vector 371  Highway.node[16].appl  nodeId  ETV
vector 375  Highway.node[16].appl  acceleration  ETV
vector 376  Highway.node[16].appl  controllerAcceleration  ETV
vector 372  Highway.node[16].appl  speed  ETV
vector 373  Highway.node[16].appl  posx  ETV
vector 374  Highway.node[16].appl  posy  ETV
vector 392  Highway.node[17].appl  distance  ETV
vector 393  Highway.node[17].appl  relativeSpeed  ETV
vector 394  Highway.node[17].appl  nodeId  ETV
vector 398  Highway.node[17].appl  acceleration  ETV
vector 399  Highway.node[17].appl  controllerAcceleration  ETV
vector 395  Highway.node[17].appl  speed  ETV
vector 396  Highway.node[17].appl  posx  ETV
vector 397  Highway.node[17].appl  posy  ETV
vector 415  Highway.node[18].appl  distance  ETV
vector 416  Highway.node[18].appl  relativeSpeed  ETV
vector 417  Highway.node[18].appl  nodeId  ETV
vector 421  Highway.node[18].appl  acceleration  ETV
vector 422  Highway.node[18].appl  controllerAcceleration  ETV
vector 418  Highway.node[18].appl  speed  ETV
vector 419  Highway.node[18].appl  posx  ETV
vector 420  Highway.node[18].appl  posy  ETV
vector 438  Highway.node[19].appl  distance  ETV
vector 439  Highway.node[19].appl  relativeSpeed  ETV
vector 440  Highway.node[19].appl  nodeId  ETV
vector 444  Highway.node[19].appl  acceleration  ETV
vector 445  Highway.node[19].appl  controllerAcceleration  ETV
vector 441  Highway.node[19].appl  speed  ETV
vector 442  Highway.node[19].appl  posx  ETV
vector 443  Highway.node[19].appl  posy  ETV
vector 461  Highway.node[20].appl  distance  ETV
vector 462  Highway.node[20].appl  relativeSpeed  ETV
vector 463  Highway.node[20].appl  nodeId  ETV
vector 467  Highway.node[20].appl  acceleration  ETV
vector 468  Highway.node[20].appl  controllerAcceleration  ETV
vector 464  Highway.node[20].appl  speed  ETV
vector 465  Highway.node[20].appl  posx  ETV
vector 466  Highway.node[20].appl  posy  ETV
vector 484  Highway.node[21].appl  distance  ETV
vector 485  Highway.node[21].appl  relativeSpeed  ETV
vector 486  Highway.node[21].appl  nodeId  ETV
vector 490  Highway.node[21].appl  acceleration  ETV
vector 491  Highway.node[21].appl  controllerAcceleration  ETV
vector 487  Highway.node[21].appl  speed  ETV
vector 488  Highway.node[21].appl  posx  ETV
vector 489  Highway.node[21].appl  posy  ETV
vector 101  Highway.node[4].prot  nodeId  ETV
vector 102  Highway.node[4].prot  busyTime  ETV
vector 103  Highway.node[4].prot  collisions  ETV
vector 124  Highway.node[5].prot  nodeId  ETV
vector 125  Highway.node[5].prot  busyTime  ETV
vector 126  Highway.node[5].prot  collisions  ETV
vector 147  Highway.node[6].prot  nodeId  ETV
vector 148  Highway.node[6].prot  busyTime  ETV
vector 149  Highway.node[6].prot  collisions  ETV
vector 170  Highway.node[7].prot  nodeId  ETV
vector 171  Highway.node[7].prot  busyTime  ETV
vector 172  Highway.node[7].prot  collisions  ETV
vector 193  Highway.node[8].prot  nodeId  ETV
vector 194  Highway.node[8].prot  busyTime  ETV
vector 195  Highway.node[8].prot  collisions  ETV
vector 216  Highway.node[9].prot  nodeId  ETV
vector 217  Highway.node[9].prot  busyTime  ETV
vector 218  Highway.node[9].prot  collisions  ETV
vector 239  Highway.node[10].prot  nodeId  ETV
vector 240  Highway.node[10].prot  busyTime  ETV
vector 241  Highway.node[10].prot  collisions  ETV
vector 262  Highway.node[11].prot  nodeId  ETV
vector 263  Highway.node[11].prot  busyTime  ETV
vector 264  Highway.node[11].prot  collisions  ETV
vector 285  Highway.node[12].prot  nodeId  ETV
vector 286  Highway.node[12].prot  busyTime  ETV
vector 287  Highway.node[12].prot  collisions  ETV
vector 308  Highway.node[13].prot  nodeId  ETV
vector 309  Highway.node[13].prot  busyTime  ETV
vector 310  Highway.node[13].prot  collisions  ETV
vector 331  Highway.node[14].prot  nodeId  ETV
vector 332  Highway.node[14].prot  busyTime  ETV
vector 333  Highway.node[14].prot  collisions  ETV
vector 354  Highway.node[15].prot  nodeId  ETV
vector 355  Highway.node[15].prot  busyTime  ETV
vector 356  Highway.node[15].prot  collisions  ETV
vector 377  Highway.node[16].prot  nodeId  ETV
vector 378  Highway.node[16].prot  busyTime  ETV
vector 379  Highway.node[16].prot  collisions  ETV
vector 400  Highway.node[17].prot  nodeId  ETV
vector 401  Highway.node[17].prot  busyTime  ETV
vector 402  Highway.node[17].prot  collisions  ETV
vector 423  Highway.node[18].prot  nodeId  ETV
vector 424  Highway.node[18].prot  busyTime  ETV
vector 425  Highway.node[18].prot  collisions  ETV
vector 446  Highway.node[19].prot  nodeId  ETV
vector 447  Highway.node[19].prot  busyTime  ETV
vector 448  Highway.node[19].prot  collisions  ETV
vector 469  Highway.node[20].prot  nodeId  ETV
vector 470  Highway.node[20].prot  busyTime  ETV
vector 471  Highway.node[20].prot  collisions  ETV
vector 492  Highway.node[21].prot  nodeId  ETV
vector 493  Highway.node[21].prot  busyTime  ETV
vector 494  Highway.node[21].prot  collisions  ETV
8	632	1.11	-0.00218518
8	1192	1.21	-0.00213419
8	1752	1.31	-0.00205408
8	2312	1.41	-0.00195152
8	2873	1.51	-0.00183238
8	3433	1.61	-0.00170178
8	3993	1.71	-0.00156412
8	4554	1.81	-0.00142314
8	5114	1.91	-0.00128196
8	5680	2.01	-0.00114315
8	6240	2.11	-0.00100877
8	6800	2.21	-0.000880447
8	7360	2.31	-0.000759381
8	7920	2.41	-0.000646445
8	8480	2.51	-0.000542204
8	9040	2.61	-0.000446965
8	9600	2.71	-0.000360819
8	10160	2.81	-0.000283678
8	10720	2.91	-0.000215307
8	11284	3.01	-0.000155357
8	11844	3.11	-0.000103391
8	12404	3.21	-5.89069e-05
8	12964	3.31	-2.13575e-05
8	13524	3.41	9.82919e-06
8	14084	3.51	3.52368e-05
8	14644	3.61	5.54479e-05
8	15204	3.71	7.10335e-05
8	15764	3.81	8.25451e-05
8	16324	3.91	9.05081e-05
8	16888	4.01	9.54172e-05
8	17448	4.11	9.7733e-05
8	18008	4.21	9.78798e-05
8	18568	4.31	9.62447e-05
8	19128	4.41	9.31771e-05
8	19688	4.51	8.89894e-05
8	20248	4.61	8.39579e-05
8	20808	4.71	7.83245e-05
8	21368	4.81	7.22983e-05
8	21928	4.91	6.6058e-05
8	22492	5.01	5.9754e-05
8	23052	5.11	5.35107e-05
8	23612	5.21	4.74294e-05
8	24172	5.31	4.15898e-05
8	24732	5.41	3.60534e-05
8	25292	5.51	3.0865e-05
8	25852	5.61	2.60551e-05
8	26412	5.71	2.16419e-05
8	26972	5.81	1.76335e-05
8	27532	5.91	1.40289e-05
8	28096	6.01	1.08202e-05
8	28656	6.11	7.99392e-06
8	29216	6.21	5.532e-06
8	29776	6.31	3.41315e-06
8	30336	6.41	1.61374e-06
8	30896	6.51	1.08654e-07
8	31456	6.61	-1.12799e-06
8	32016	6.71	-2.12224e-06
8	32576	6.81	-2.89981e-06
8	33136	6.91	-3.48567e-06
8	33700	7.01	-3.90376e-06
8	34260	7.11	-4.17673e-06
8	34820	7.21	-4.32574e-06
8	35380	7.31	-4.3704e-06
8	35940	7.41	-4.32865e-06
8	36500	7.51	-4.21676e-06
8	37060	7.61	-4.04934e-06
8	37620	7.71	-3.83937e-06
8	38180	7.81	-3.59826e-06
8	38740	7.91	-3.33592e-06
8	39304	8.01	-3.06089e-06
8	39864	8.11	-2.78036e-06
8	40424	8.21	-2.50036e-06
8	40984	8.31	-2.22582e-06
8	41544	8.41	-1.96068e-06
8	42104	8.51	-1.708e-06
8	42664	8.61	-1.47009e-06
8	43224	8.71	-1.24855e-06
8	43784	8.81	-1.04441e-06
8	44344	8.91	-8.58219e-07
8	44908	9.01	-6.90082e-07
8	45468	9.11	-5.39774e-07
8	46028	9.21	-4.06787e-07
8	46588	9.31	-2.90396e-07
8	47148	9.41	-1.89707e-07
8	47708	9.51	-1.03704e-07
8	48268	9.61	-3.12909e-08
8	48828	9.71	2.86736e-08
8	49388	9.81	7.73515e-08
8	49948	9.91	1.15897e-07
8	50512	10.01	1.45439e-07
8	51072	10.11	1.67065e-07
8	51632	10.21	1.81809e-07
8	52192	10.31	1.90644e-07
8	52752	10.41	1.94472e-07
8	53312	10.51	1.94125e-07
8	53872	10.61	1.90358e-07
8	54432	10.71	1.83853e-07
8	54992	10.81	1.75219e-07
8	55552	10.91	1.64994e-07
8	56117	11.01	1.53647e-07
8	59091	11.11	1.41582e-07
8	65253	11.21	1.29146e-07
8	71413	11.31	1.16627e-07
8	77572	11.41	1.04266e-07
8	83731	11.51	9.22547e-08
8	89889	11.61	8.07471e-08
8	96052	11.71	6.98584e-08
8	102212	11.81	5.96732e-08
8	108370	11.91	5.02471e-08
8	114551	12.01	4.16133e-08
8	120709	12.11	3.37845e-08
8	126867	12.21	2.67558e-08
8	133025	12.31	2.05102e-08
8	139183	12.41	1.50187e-08
8	145341	12.51	1.02442e-08
8	151499	12.61	6.14406e-09
8	157657	12.71	2.67022e-09
8	163815	12.81	-2.27374e-10
8	169973	12.91	-2.60059e-09
8	176153	13.01	-4.50058e-09
8	182311	13.11	-5.97851e-09
8	188469	13.21	-7.08376e-09
8	194627	13.31	-7.86322e-09
8	200785	13.41	-8.36167e-09
8	206943	13.51	-8.62066e-09
8	213101	13.61	-8.67857e-09
8	219259	13.71	-8.57057e-09
8	225417	13.81	-8.32792e-09
8	231575	13.91	-7.97975e-09
8	237755	14.01	-7.55058e-09
8	243913	14.11	-7.06351e-09
8	250071	14.21	-6.53699e-09
8	256229	14.31	-5.98774e-09
8	262387	14.41	-5.42997e-09
8	268545	14.51	-4.87468e-09
8	274703	14.61	-4.33182e-09
8	280861	14.71	-3.80886e-09
8	287019	14.81	-3.31148e-09
8	293177	14.91	-2.84395e-09
8	299357	15.01	-2.40981e-09
8	305515	15.11	-2.01013e-09
8	311673	15.21	-1.64633e-09
8	317831	15.31	-1.31806e-09
8	323989	15.41	-1.02531e-09
8	330147	15.51	-7.66676e-10
8	336305	15.61	-5.40723e-10
8	342463	15.71	-3.46034e-10
8	348621	15.81	-1.79767e-10
8	354779	15.91	-4.01457e-11
8	360959	16.01	7.49623e-11
8	367117	16.11	1.68043e-10
8	373275	16.21	2.41585e-10
8	379433	16.31	2.97362e-10
8	385591	16.41	3.37863e-10
8	391749	16.51	3.64864e-10
8	397907	16.61	3.80851e-10
8	404065	16.71	3.86891e-10
8	410223	16.81	3.84759e-10
8	416381	16.91	3.76232e-10
8	422561	17.01	3.62377e-10
8	428719	17.11	3.44613e-10
8	434877	17.21	3.24007e-10
8	441035	17.31	3.00915e-10
8	447193	17.41	2.76756e-10
8	453351	17.51	2.52243e-10
8	459509	17.61	2.27374e-10
8	465667	17.71	2.0286e-10
8	471825	17.81	1.79057e-10
8	477983	17.91	1.56319e-10
8	484163	18.01	1.35003e-10
8	490321	18.11	1.15108e-10
8	496479	18.21	9.66338e-11
8	502637	18.31	7.99361e-11
8	508795	18.41	6.46594e-11
8	514953	18.51	5.08038e-11
8	521111	18.61	3.83693e-11
8	527269	18.71	2.73559e-11
8	533427	18.81	1.77636e-11
8	539585	18.91	9.59233e-12
8	545765	19.01	2.84217e-12
8	551923	19.11	-2.84217e-12
8	558081	19.21	-7.4607e-12
8	564239	19.31	-1.13687e-11
8	570397	19.41	-1.42109e-11
8	576555	19.51	-1.63425e-11
8	582713	19.61	-1.77636e-11
8	588871	19.71	-1.84741e-11
8	595029	19.81	-1.88294e-11
8	601187	19.91	-1.88294e-11
8	607367	20.01	-1.88294e-11
8	613525	20.11	-1.81188e-11
8	619683	20.21	-1.7053e-11
8	625841	20.31	-1.63425e-11
8	631999	20.41	-1.52767e-11
8	638157	20.51	-1.45661e-11
8	644315	20.61	-1.35003e-11
8	650473	20.71	-1.27898e-11
8	656631	20.81	-1.1724e-11
8	662789	20.91	-1.10134e-11
8	668969	21.01	-9.9476e-12
8	675127	21.11	-9.23706e-12
8	681285	21.21	-8.17124e-12
8	687443	21.31	-7.4607e-12
8	693601	21.41	-6.39488e-12
8	699759	21.51	-5.68434e-12
8	705917	21.61	-4.61853e-12
8	712075	21.71	-3.90799e-12
8	718233	21.81	-2.84217e-12
8	724391	21.91	-2.13163e-12
8	730571	22.01	-1.06581e-12
8	736729	22.11	-3.55271e-13
8	742887	22.21	7.10543e-13
8	749045	22.31	1.42109e-12
8	755203	22.41	2.13163e-12
8	761361	22.51	2.84217e-12
8	767519	22.61	3.19744e-12
8	773677	22.71	3.90799e-12
8	779835	22.81	4.26326e-12
8	785993	22.91	4.61853e-12
8	792173	23.01	5.32907e-12
8	798331	23.11	5.68434e-12
8	804489	23.21	5.68434e-12
8	810647	23.31	6.03961e-12
8	816805	23.41	6.39488e-12
8	822963	23.51	6.75016e-12
8	829121	23.61	6.75016e-12
8	835279	23.71	7.10543e-12
8	841437	23.81	7.10543e-12
8	847595	23.91	7.4607e-12
8	853775	24.01	7.4607e-12
8	859933	24.11	7.81597e-12
8	866091	24.21	7.81597e-12
8	872249	24.31	7.81597e-12
8	878407	24.41	7.81597e-12
8	884565	24.51	8.17124e-12
8	890723	24.61	8.17124e-12
8	896881	24.71	8.17124e-12
8	903039	24.81	8.17124e-12
8	909197	24.91	8.17124e-12
8	915377	25.01	8.52651e-12
8	921535	25.11	8.52651e-12
8	927693	25.21	8.52651e-12
8	933851	25.31	8.52651e-12
8	940009	25.41	8.52651e-12
8	946167	25.51	8.52651e-12
8	952325	25.61	8.52651e-12
8	958483	25.71	8.52651e-12
8	964641	25.81	8.52651e-12
8	970799	25.91	8.52651e-12
8	976979	26.01	8.88178e-12
8	983137	26.11	8.88178e-12
8	989295	26.21	8.88178e-12
8	995453	26.31	8.88178e-12
8	1001611	26.41	8.88178e-12
8	1007769	26.51	8.88178e-12
8	1013927	26.61	8.88178e-12
8	1020085	26.71	8.88178e-12
8	1026243	26.81	8.88178e-12
8	1032401	26.91	8.88178e-12
8	1038581	27.01	8.88178e-12
8	1044739	27.11	8.88178e-12
8	1050897	27.21	8.88178e-12
8	1057055	27.31	8.88178e-12
8	1063213	27.41	8.88178e-12
8	1069371	27.51	8.88178e-12
8	1075529	27.61	8.88178e-12
8	1081687	27.71	8.88178e-12
8	1087845	27.81	8.88178e-12
8	1094003	27.91	8.88178e-12
8	1100183	28.01	8.88178e-12
8	1106341	28.11	8.88178e-12
8	1112499	28.21	8.88178e-12
8	1118657	28.31	8.88178e-12
8	1124815	28.41	8.88178e-12
8	1130973	28.51	8.88178e-12
8	1137131	28.61	8.88178e-12
8	1143289	28.71	8.88178e-12
8	1149447	28.81	8.88178e-12
8	1155605	28.91	8.88178e-12
8	1161785	29.01	8.88178e-12
8	1167943	29.11	8.88178e-12
8	1174101	29.21	8.88178e-12
8	1180259	29.31	8.88178e-12
8	1186417	29.41	8.88178e-12
8	1192575	29.51	8.88178e-12
8	1198733	29.61	8.88178e-12
8	1204891	29.71	8.88178e-12
7	632	1.11	-0.000358191
7	1192	1.21	-0.000681704
7	1752	1.31	-0.00093487
7	2312	1.41	-0.00112579
7	2873	1.51	-0.00126221
7	3433	1.61	-0.00135149
7	3993	1.71	-0.00140049
7	4554	1.81	-0.00141557
7	5114	1.91	-0.00140255
7	5680	2.01	-0.00136671
7	6240	2.11	-0.0013128
7	6800	2.21	-0.00124502
7	7360	2.31	-0.0011671
7	7920	2.41	-0.00108223
7	8480	2.51	-0.000993208
7	9040	2.61	-0.000902362
7	9600	2.71	-0.000811651
7	10160	2.81	-0.000722679
7	10720	2.91	-0.000636729
7	11284	3.01	-0.0005548
7	11844	3.11	-0.000477639
7	12404	3.21	-0.000405773
7	12964	3.31	-0.00033954
7	13524	3.41	-0.000279116
7	14084	3.51	-0.000224541
7	14644	3.61	-0.000175743
7	15204	3.71	-0.00013256
7	15764	3.81	-9.47571e-05
7	16324	3.91	-6.2046e-05
7	16888	4.01	-3.40986e-05
7	17448	4.11	-1.05605e-05
7	18008	4.21	8.93844e-06
7	18568	4.31	2.4774e-05
7	19128	4.41	3.73203e-05
7	19688	4.51	4.69433e-05
7	20248	4.61	5.39956e-05
7	20808	4.71	5.88124e-05
7	21368	4.81	6.1709e-05
7	21928	4.91	6.29785e-05
7	22492	5.01	6.28903e-05
7	23052	5.11	6.169e-05
7	23612	5.21	5.95988e-05
7	24172	5.31	5.68144e-05
7	24732	5.41	5.35112e-05
7	25292	5.51	4.98416e-05
7	25852	5.61	4.59373e-05
7	26412	5.71	4.19105e-05
7	26972	5.81	3.78555e-05
7	27532	5.91	3.38499e-05
7	28096	6.01	2.99569e-05
7	28656	6.11	2.62259e-05
7	29216	6.21	2.26948e-05
7	29776	6.31	1.93911e-05
7	30336	6.41	1.6333e-05
7	30896	6.51	1.35314e-05
7	31456	6.61	1.09904e-05
7	32016	6.71	8.70882e-06
7	32576	6.81	6.6809e-06
7	33136	6.91	4.89747e-06
7	33700	7.01	3.3466e-06
7	34260	7.11	2.01432e-06
7	34820	7.21	8.85256e-07
7	35380	7.31	-5.68459e-08
7	35940	7.41	-8.28678e-07
7	36500	7.51	-1.44699e-06
7	37060	7.61	-1.92826e-06
7	37620	7.71	-2.28849e-06
7	38180	7.81	-2.54296e-06
7	38740	7.91	-2.7061e-06
7	39304	8.01	-2.79139e-06
7	39864	8.11	-2.8113e-06
7	40424	8.21	-2.77721e-06
7	40984	8.31	-2.69943e-06
7	41544	8.41	-2.58721e-06
7	42104	8.51	-2.44874e-06
7	42664	8.61	-2.29123e-06
7	43224	8.71	-2.12092e-06
7	43784	8.81	-1.94317e-06
7	44344	8.91	-1.7625e-06
7	44908	9.01	-1.58267e-06
7	45468	9.11	-1.40677e-06
7	46028	9.21	-1.23723e-06
7	46588	9.31	-1.07596e-06
7	47148	9.41	-9.24364e-07
7	47708	9.51	-7.83424e-07
7	48268	9.61	-6.53753e-07
7	48828	9.71	-5.35652e-07
7	49388	9.81	-4.2916e-07
7	49948	9.91	-3.34103e-07
7	50512	10.01	-2.5013e-07
7	51072	10.11	-1.76757e-07
7	51632	10.21	-1.13395e-07
7	52192	10.31	-5.93825e-08
7	52752	10.41	-1.40084e-08
7	53312	10.51	2.34657e-08
7	53872	10.61	5.3787e-08
7	54432	10.71	7.76954e-08
7	54992	10.81	9.59155e-08
7	55552	10.91	1.09142e-07
7	56117	11.01	1.18035e-07
7	59091	11.11	1.23212e-07
7	65253	11.21	1.2525e-07
7	71413	11.31	1.24675e-07
7	77572	11.41	1.21968e-07
7	83731	11.51	1.17559e-07
7	89889	11.61	1.11834e-07
7	96052	11.71	1.05132e-07
7	102212	11.81	9.77476e-08
7	108370	11.91	8.99373e-08
7	114551	12.01	8.19171e-08
7	120709	12.11	7.38677e-08
7	126867	12.21	6.59401e-08
7	133025	12.31	5.82538e-08
7	139183	12.41	5.09036e-08
7	145341	12.51	4.39606e-08
7	151499	12.61	3.74765e-08
7	157657	12.71	3.14852e-08
7	163815	12.81	2.60055e-08
7	169973	12.91	2.10438e-08
7	176153	13.01	1.65958e-08
7	182311	13.11	1.26498e-08
7	188469	13.21	9.18554e-09
7	194627	13.31	6.17888e-09
7	200785	13.41	3.60174e-09
7	206943	13.51	1.42322e-09
7	213101	13.61	-3.90088e-10
7	219259	13.71	-1.8705e-09
7	225417	13.81	-3.05107e-09
7	231575	13.91	-3.96518e-09
7	237755	14.01	-4.64375e-09
7	243913	14.11	-5.11768e-09
7	250071	14.21	-5.41434e-09
7	256229	14.31	-5.56071e-09
7	262387	14.41	-5.58096e-09
7	268545	14.51	-5.49747e-09
7	274703	14.61	-5.33085e-09
7	280861	14.71	-5.09743e-09
7	287019	14.81	-4.81464e-09
7	293177	14.91	-4.49667e-09
7	299357	15.01	-4.15525e-09
7	305515	15.11	-3.80034e-09
7	311673	15.21	-3.44151e-09
7	317831	15.31	-3.08518e-09
7	323989	15.41	-2.73772e-09
7	330147	15.51	-2.40306e-09
7	336305	15.61	-2.08544e-09
7	342463	15.71	-1.78773e-09
7	348621	15.81	-1.51132e-09
7	354779	15.91	-1.25766e-09
7	360959	16.01	-1.02673e-09
7	367117	16.11	-8.18901e-10
7	373275	16.21	-6.33804e-10
7	379433	16.31	-4.70735e-10
7	385591	16.41	-3.28271e-10
7	391749	16.51	-2.05702e-10
7	397907	16.61	-1.00897e-10
7	404065	16.71	-1.35003e-11
7	410223	16.81	5.82645e-11
7	416381	16.91	1.16174e-10
7	422561	17.01	1.61648e-10
7	428719	17.11	1.95755e-10
7	434877	17.21	2.20624e-10
7	441035	17.31	2.36966e-10
7	447193	17.41	2.45848e-10
7	453351	17.51	2.4869e-10
7	459509	17.61	2.46914e-10
7	465667	17.71	2.40874e-10
7	471825	17.81	2.31282e-10
7	477983	17.91	2.19913e-10
7	484163	18.01	2.05702e-10
7	490321	18.11	1.91491e-10
7	496479	18.21	1.7657e-10
7	502637	18.31	1.59872e-10
7	508795	18.41	1.44595e-10
7	514953	18.51	1.30385e-10
7	521111	18.61	1.16174e-10
7	527269	18.71	1.01963e-10
7	533427	18.81	8.7752e-11
7	539585	18.91	7.35412e-11
7	545765	19.01	6.21725e-11
7	551923	19.11	5.15143e-11
7	558081	19.21	4.08562e-11
7	564239	19.31	3.16192e-11
7	570397	19.41	2.45137e-11
7	576555	19.51	1.74083e-11
7	582713	19.61	1.03029e-11
7	588871	19.71	6.03961e-12
7	595029	19.81	2.4869e-12
7	601187	19.91	-1.06581e-12
7	607367	20.01	-4.61853e-12
7	613525	20.11	-8.17124e-12
7	619683	20.21	-8.88178e-12
7	625841	20.31	-8.88178e-12
7	631999	20.41	-8.88178e-12
7	638157	20.51	-8.88178e-12
7	644315	20.61	-8.88178e-12
7	650473	20.71	-8.88178e-12
7	656631	20.81	-8.88178e-12
7	662789	20.91	-8.88178e-12
7	668969	21.01	-8.88178e-12
7	675127	21.11	-8.88178e-12
7	681285	21.21	-8.88178e-12
7	687443	21.31	-8.88178e-12
7	693601	21.41	-8.88178e-12
7	699759	21.51	-8.88178e-12
7	705917	21.61	-8.88178e-12
7	712075	21.71	-8.88178e-12
7	718233	21.81	-8.88178e-12
7	724391	21.91	-8.88178e-12
7	730571	22.01	-8.88178e-12
7	736729	22.11	-8.88178e-12
7	742887	22.21	-8.17124e-12
7	749045	22.31	-7.4607e-12
7	755203	22.41	-6.75016e-12
7	761361	22.51	-6.03961e-12
7	767519	22.61	-5.68434e-12
7	773677	22.71	-4.9738e-12
7	779835	22.81	-4.61853e-12
7	785993	22.91	-4.26326e-12
7	792173	23.01	-3.55271e-12
7	798331	23.11	-3.19744e-12
7	804489	23.21	-3.19744e-12
7	810647	23.31	-2.84217e-12
7	816805	23.41	-2.4869e-12
7	822963	23.51	-2.13163e-12
7	829121	23.61	-2.13163e-12
7	835279	23.71	-1.77636e-12
7	841437	23.81	-1.77636e-12
7	847595	23.91	-1.42109e-12
7	853775	24.01	-1.42109e-12
7	859933	24.11	-1.06581e-12
7	866091	24.21	-1.06581e-12
7	872249	24.31	-1.06581e-12
7	878407	24.41	-1.06581e-12
7	884565	24.51	-7.10543e-13
7	890723	24.61	-7.10543e-13
7	896881	24.71	-7.10543e-13
7	903039	24.81	-7.10543e-13
7	909197	24.91	-7.10543e-13
7	915377	25.01	-3.55271e-13
7	921535	25.11	-3.55271e-13
7	927693	25.21	-3.55271e-13
7	933851	25.31	-3.55271e-13
7	940009	25.41	-3.55271e-13
7	946167	25.51	-3.55271e-13
7	952325	25.61	-3.55271e-13
7	958483	25.71	-3.55271e-13
7	964641	25.81	-3.55271e-13
7	970799	25.91	-3.55271e-13
7	976979	26.01	0
7	983137	26.11	0
7	989295	26.21	0
7	995453	26.31	0
7	1001611	26.41	0
7	1007769	26.51	0
7	1013927	26.61	0
7	1020085	26.71	0
7	1026243	26.81	0
7	1032401	26.91	0
7	1038581	27.01	0
7	1044739	27.11	0
7	1050897	27.21	0
7	1057055	27.31	0
7	1063213	27.41	0
7	1069371	27.51	0
7	1075529	27.61	0
7	1081687	27.71	0
7	1087845	27.81	0
7	1094003	27.91	0
7	1100183	28.01	0
7	1106341	28.11	0
7	1112499	28.21	0
7	1118657	28.31	0
7	1124815	28.41	0
7	1130973	28.51	0
7	1137131	28.61	0
7	1143289	28.71	0
7	1149447	28.81	0
7	1155605	28.91	0
7	1161785	29.01	0
7	1167943	29.11	0
7	1174101	29.21	0
7	1180259	29.31	0
7	1186417	29.41	0
7	1192575	29.51	0
7	1198733	29.61	0
7	1204891	29.71	0
6	632	1.11	236.4
6	1192	1.21	236.4
6	1752	1.31	236.4
6	2312	1.41	236.4
6	2873	1.51	236.4
6	3433	1.61	236.4
6	3993	1.71	236.4
6	4554	1.81	236.4
6	5114	1.91	236.4
6	5680	2.01	236.4
6	6240	2.11	236.4
6	6800	2.21	236.4
6	7360	2.31	236.4
6	7920	2.41	236.4
6	8480	2.51	236.4
6	9040	2.61	236.4
6	9600	2.71	236.4
6	10160	2.81	236.4
6	10720	2.91	236.4
6	11284	3.01	236.4
6	11844	3.11	236.4
6	12404	3.21	236.4
6	12964	3.31	236.4
6	13524	3.41	236.4
6	14084	3.51	236.4
6	14644	3.61	236.4
6	15204	3.71	236.4
6	15764	3.81	236.4
6	16324	3.91	236.4
6	16888	4.01	236.4
6	17448	4.11	236.4
6	18008	4.21	236.4
6	18568	4.31	236.4
6	19128	4.41	236.4
6	19688	4.51	236.4
6	20248	4.61	236.4
6	20808	4.71	236.4
6	21368	4.81	236.4
6	21928	4.91	236.4
6	22492	5.01	236.4
6	23052	5.11	236.4
6	23612	5.21	236.4
6	24172	5.31	236.4
6	24732	5.41	236.4
6	25292	5.51	236.4
6	25852	5.61	236.4
6	26412	5.71	236.4
6	26972	5.81	236.4
6	27532	5.91	236.4
6	28096	6.01	236.4
6	28656	6.11	236.4
6	29216	6.21	236.4
6	29776	6.31	236.4
6	30336	6.41	236.4
6	30896	6.51	236.4
6	31456	6.61	236.4
6	32016	6.71	236.4
6	32576	6.81	236.4
6	33136	6.91	236.4
6	33700	7.01	236.4
6	34260	7.11	236.4
6	34820	7.21	236.4
6	35380	7.31	236.4
6	35940	7.41	236.4
6	36500	7.51	236.4
6	37060	7.61	236.4
6	37620	7.71	236.4
6	38180	7.81	236.4
6	38740	7.91	236.4
6	39304	8.01	236.4
6	39864	8.11	236.4
6	40424	8.21	236.4
6	40984	8.31	236.4
6	41544	8.41	236.4
6	42104	8.51	236.4
6	42664	8.61	236.4
6	43224	8.71	236.4
6	43784	8.81	236.4
6	44344	8.91	236.4
6	44908	9.01	236.4
6	45468	9.11	236.4
6	46028	9.21	236.4
6	46588	9.31	236.4
6	47148	9.41	236.4
6	47708	9.51	236.4
6	48268	9.61	236.4
6	48828	9.71	236.4
6	49388	9.81	236.4
6	49948	9.91	236.4
6	50512	10.01	236.4
6	51072	10.11	236.4
6	51632	10.21	236.4
6	52192	10.31	236.4
6	52752	10.41	236.4
6	53312	10.51	236.4
6	53872	10.61	236.4
6	54432	10.71	236.4
6	54992	10.81	236.4
6	55552	10.91	236.4
6	56117	11.01	236.4
6	59091	11.11	236.4
6	65253	11.21	236.4
6	71413	11.31	236.4
6	77572	11.41	236.4
6	83731	11.51	236.4
6	89889	11.61	236.4
6	96052	11.71	236.4
6	102212	11.81	236.4
6	108370	11.91	236.4
6	114551	12.01	236.4
6	120709	12.11	236.4
6	126867	12.21	236.4
6	133025	12.31	236.4
6	139183	12.41	236.4
6	145341	12.51	236.4
6	151499	12.61	236.4
6	157657	12.71	236.4
6	163815	12.81	236.4
6	169973	12.91	236.4
6	176153	13.01	236.4
6	182311	13.11	236.4
6	188469	13.21	236.4
6	194627	13.31	236.4
6	200785	13.41	236.4
6	206943	13.51	236.4
6	213101	13.61	236.4
6	219259	13.71	236.4
6	225417	13.81	236.4
6	231575	13.91	236.4
6	237755	14.01	236.4
6	243913	14.11	236.4
6	250071	14.21	236.4
6	256229	14.31	236.4
6	262387	14.41	236.4
6	268545	14.51	236.4
6	274703	14.61	236.4
6	280861	14.71	236.4
6	287019	14.81	236.4
6	293177	14.91	236.4
6	299357	15.01	236.4
6	305515	15.11	236.4
6	311673	15.21	236.4
6	317831	15.31	236.4
6	323989	15.41	236.4
6	330147	15.51	236.4
6	336305	15.61	236.4
6	342463	15.71	236.4
6	348621	15.81	236.4
6	354779	15.91	236.4
6	360959	16.01	236.4
6	367117	16.11	236.4
6	373275	16.21	236.4
6	379433	16.31	236.4
6	385591	16.41	236.4
6	391749	16.51	236.4
6	397907	16.61	236.4
6	404065	16.71	236.4
6	410223	16.81	236.4
6	416381	16.91	236.4
6	422561	17.01	236.4
6	428719	17.11	236.4
6	434877	17.21	236.4
6	441035	17.31	236.4
6	447193	17.41	236.4
6	453351	17.51	236.4
6	459509	17.61	236.4
6	465667	17.71	236.4
6	471825	17.81	236.4
6	477983	17.91	236.4
6	484163	18.01	236.4
6	490321	18.11	236.4
6	496479	18.21	236.4
6	502637	18.31	236.4
6	508795	18.41	236.4
6	514953	18.51	236.4
6	521111	18.61	236.4
6	527269	18.71	236.4
6	533427	18.81	236.4
6	539585	18.91	236.4
6	545765	19.01	236.4
6	551923	19.11	236.4
6	558081	19.21	236.4
6	564239	19.31	236.4
6	570397	19.41	236.4
6	576555	19.51	236.4
6	582713	19.61	236.4
6	588871	19.71	236.4
6	595029	19.81	236.4
6	601187	19.91	236.4
6	607367	20.01	236.4
6	613525	20.11	236.4
6	619683	20.21	236.4
6	625841	20.31	236.4
6	631999	20.41	236.4
6	638157	20.51	236.4
6	644315	20.61	236.4
6	650473	20.71	236.4
6	656631	20.81	236.4
6	662789	20.91	236.4
6	668969	21.01	236.4
6	675127	21.11	236.4
6	681285	21.21	236.4
6	687443	21.31	236.4
6	693601	21.41	236.4
6	699759	21.51	236.4
6	705917	21.61	236.4
6	712075	21.71	236.4
6	718233	21.81	236.4
6	724391	21.91	236.4
6	730571	22.01	236.4
6	736729	22.11	236.4
6	742887	22.21	236.4
6	749045	22.31	236.4
6	755203	22.41	236.4
6	761361	22.51	236.4
6	767519	22.61	236.4
6	773677	22.71	236.4
6	779835	22.81	236.4
6	785993	22.91	236.4
6	792173	23.01	236.4
6	798331	23.11	236.4
6	804489	23.21	236.4
6	810647	23.31	236.4
6	816805	23.41	236.4
6	822963	23.51	236.4
6	829121	23.61	236.4
6	835279	23.71	236.4
6	841437	23.81	236.4
6	847595	23.91	236.4
6	853775	24.01	236.4
6	859933	24.11	236.4
6	866091	24.21	236.4
6	872249	24.31	236.4
6	878407	24.41	236.4
6	884565	24.51	236.4
6	890723	24.61	236.4
6	896881	24.71	236.4
6	903039	24.81	236.4
6	909197	24.91	236.4
6	915377	25.01	236.4
6	921535	25.11	236.4
6	927693	25.21	236.4
6	933851	25.31	236.4
6	940009	25.41	236.4
6	946167	25.51	236.4
6	952325	25.61	236.4
6	958483	25.71	236.4
6	964641	25.81	236.4
6	970799	25.91	236.4
6	976979	26.01	236.4
6	983137	26.11	236.4
6	989295	26.21	236.4
6	995453	26.31	236.4
6	1001611	26.41	236.4
6	1007769	26.51	236.4
6	1013927	26.61	236.4
6	1020085	26.71	236.4
6	1026243	26.81	236.4
6	1032401	26.91	236.4
6	1038581	27.01	236.4
6	1044739	27.11	236.4
6	1050897	27.21	236.4
6	1057055	27.31	236.4
6	1063213	27.41	236.4
6	1069371	27.51	236.4
6	1075529	27.61	236.4
6	1081687	27.71	236.4
6	1087845	27.81	236.4
6	1094003	27.91	236.4
6	1100183	28.01	236.4
6	1106341	28.11	236.4
6	1112499	28.21	236.4
6	1118657	28.31	236.4
6	1124815	28.41	236.4
6	1130973	28.51	236.4
6	1137131	28.61	236.4
6	1143289	28.71	236.4
6	1149447	28.81	236.4
6	1155605	28.91	236.4
6	1161785	29.01	236.4
6	1167943	29.11	236.4
6	1174101	29.21	236.4
6	1180259	29.31	236.4
6	1186417	29.41	236.4
6	1192575	29.51	236.4
6	1198733	29.61	236.4
6	1204891	29.71	236.4
5	632	1.11	37.9402
5	1192	1.21	40.7182
5	1752	1.31	43.4962
5	2312	1.41	46.2742
5	2873	1.51	49.0521
5	3433	1.61	51.8301
5	3993	1.71	54.608
5	4554	1.81	57.386
5	5114	1.91	60.1639
5	5680	2.01	62.9418
5	6240	2.11	65.7197
5	6800	2.21	68.4975
5	7360	2.31	71.2754
5	7920	2.41	74.0532
5	8480	2.51	76.8311
5	9040	2.61	79.6089
5	9600	2.71	82.3867
5	10160	2.81	85.1645
5	10720	2.91	87.9423
5	11284	3.01	90.7201
5	11844	3.11	93.4979
5	12404	3.21	96.2757
5	12964	3.31	99.0535
5	13524	3.41	101.831
5	14084	3.51	104.609
5	14644	3.61	107.387
5	15204	3.71	110.165
5	15764	3.81	112.942
5	16324	3.91	115.72
5	16888	4.01	118.498
5	17448	4.11	121.276
5	18008	4.21	124.053
5	18568	4.31	126.831
5	19128	4.41	129.609
5	19688	4.51	132.387
5	20248	4.61	135.165
5	20808	4.71	137.942
5	21368	4.81	140.72
5	21928	4.91	143.498
5	22492	5.01	146.276
5	23052	5.11	149.053
5	23612	5.21	151.831
5	24172	5.31	154.609
5	24732	5.41	157.387
5	25292	5.51	160.165
5	25852	5.61	162.942
5	26412	5.71	165.72
5	26972	5.81	168.498
5	27532	5.91	171.276
5	28096	6.01	174.053
5	28656	6.11	176.831
5	29216	6.21	179.609
5	29776	6.31	182.387
5	30336	6.41	185.165
5	30896	6.51	187.942
5	31456	6.61	190.72
5	32016	6.71	193.498
5	32576	6.81	196.276
5	33136	6.91	199.053
5	33700	7.01	201.831
5	34260	7.11	204.609
5	34820	7.21	207.387
5	35380	7.31	210.165
5	35940	7.41	212.942
5	36500	7.51	215.72
5	37060	7.61	218.498
5	37620	7.71	221.276
5	38180	7.81	224.053
5	38740	7.91	226.831
5	39304	8.01	229.609
5	39864	8.11	232.387
5	40424	8.21	235.165
5	40984	8.31	237.942
5	41544	8.41	240.72
5	42104	8.51	243.498
5	42664	8.61	246.276
5	43224	8.71	249.053
5	43784	8.81	251.831
5	44344	8.91	254.609
5	44908	9.01	257.387
5	45468	9.11	260.165
5	46028	9.21	262.942
5	46588	9.31	265.72
5	47148	9.41	268.498
5	47708	9.51	271.276
5	48268	9.61	274.053
5	48828	9.71	276.831
5	49388	9.81	279.609
5	49948	9.91	282.387
5	50512	10.01	285.165
5	51072	10.11	287.942
5	51632	10.21	290.72
5	52192	10.31	293.498
5	52752	10.41	296.276
5	53312	10.51	299.054
5	53872	10.61	301.831
5	54432	10.71	304.609
5	54992	10.81	307.387
5	55552	10.91	310.165
5	56117	11.01	312.942
5	59091	11.11	315.72
5	65253	11.21	318.498
5	71413	11.31	321.276
5	77572	11.41	324.054
5	83731	11.51	326.831
5	89889	11.61	329.609
5	96052	11.71	332.387
5	102212	11.81	335.165
5	108370	11.91	337.942
5	114551	12.01	340.72
5	120709	12.11	343.498
5	126867	12.21	346.276
5	133025	12.31	349.054
5	139183	12.41	351.831
5	145341	12.51	354.609
5	151499	12.61	357.387
5	157657	12.71	360.165
5	163815	12.81	362.942
5	169973	12.91	365.72
5	176153	13.01	368.498
5	182311	13.11	371.276
5	188469	13.21	374.054
5	194627	13.31	376.831
5	200785	13.41	379.609
5	206943	13.51	382.387
5	213101	13.61	385.165
5	219259	13.71	387.942
5	225417	13.81	390.72
5	231575	13.91	393.498
5	237755	14.01	396.276
5	243913	14.11	399.054
5	250071	14.21	401.831
5	256229	14.31	404.609
5	262387	14.41	407.387
5	268545	14.51	410.165
5	274703	14.61	412.942
5	280861	14.71	415.72
5	287019	14.81	418.498
5	293177	14.91	421.276
5	299357	15.01	424.054
5	305515	15.11	426.831
5	311673	15.21	429.609
5	317831	15.31	432.387
5	323989	15.41	435.165
5	330147	15.51	437.943
5	336305	15.61	440.72
5	342463	15.71	443.498
5	348621	15.81	446.276
5	354779	15.91	449.054
5	360959	16.01	451.831
5	367117	16.11	454.609
5	373275	16.21	457.387
5	379433	16.31	460.165
5	385591	16.41	462.943
5	391749	16.51	465.72
5	397907	16.61	468.498
5	404065	16.71	471.276
5	410223	16.81	474.054
5	416381	16.91	476.831
5	422561	17.01	479.609
5	428719	17.11	482.387
5	434877	17.21	485.165
5	441035	17.31	487.943
5	447193	17.41	490.72
5	453351	17.51	493.498
5	459509	17.61	496.276
5	465667	17.71	499.054
5	471825	17.81	501.831
5	477983	17.91	504.609
5	484163	18.01	507.387
5	490321	18.11	510.165
5	496479	18.21	512.943
5	502637	18.31	515.72
5	508795	18.41	518.498
5	514953	18.51	521.276
5	521111	18.61	524.054
5	527269	18.71	526.831
5	533427	18.81	529.609
5	539585	18.91	532.387
5	545765	19.01	535.165
5	551923	19.11	537.943
5	558081	19.21	540.72
5	564239	19.31	543.498
5	570397	19.41	546.276
5	576555	19.51	549.054
5	582713	19.61	551.831
5	588871	19.71	554.609
5	595029	19.81	557.387
5	601187	19.91	560.165
5	607367	20.01	562.943
5	613525	20.11	565.72
5	619683	20.21	568.498
5	625841	20.31	571.276
5	631999	20.41	574.054
5	638157	20.51	576.832
5	644315	20.61	579.609
5	650473	20.71	582.387
5	656631	20.81	585.165
5	662789	20.91	587.943
5	668969	21.01	590.72
5	675127	21.11	593.498
5	681285	21.21	596.276
5	687443	21.31	599.054
5	693601	21.41	601.832
5	699759	21.51	604.609
5	705917	21.61	607.387
5	712075	21.71	610.165
5	718233	21.81	612.943
5	724391	21.91	615.72
5	730571	22.01	618.498
5	736729	22.11	621.276
5	742887	22.21	624.054
5	749045	22.31	626.832
5	755203	22.41	629.609
5	761361	22.51	632.387
5	767519	22.61	635.165
5	773677	22.71	637.943
5	779835	22.81	640.72
5	785993	22.91	643.498
5	792173	23.01	646.276
5	798331	23.11	649.054
5	804489	23.21	651.832
5	810647	23.31	654.609
5	816805	23.41	657.387
5	822963	23.51	660.165
5	829121	23.61	662.943
5	835279	23.71	665.72
5	841437	23.81	668.498
5	847595	23.91	671.276
5	853775	24.01	674.054
5	859933	24.11	676.832
5	866091	24.21	679.609
5	872249	24.31	682.387
5	878407	24.41	685.165
5	884565	24.51	687.943
5	890723	24.61	690.72
5	896881	24.71	693.498
5	903039	24.81	696.276
5	909197	24.91	699.054
5	915377	25.01	701.832
5	921535	25.11	704.609
5	927693	25.21	707.387
5	933851	25.31	710.165
5	940009	25.41	712.943
5	946167	25.51	715.721
5	952325	25.61	718.498
5	958483	25.71	721.276
5	964641	25.81	724.054
5	970799	25.91	726.832
5	976979	26.01	729.609
5	983137	26.11	732.387
5	989295	26.21	735.165
5	995453	26.31	737.943
5	1001611	26.41	740.721
5	1007769	26.51	743.498
5	1013927	26.61	746.276
5	1020085	26.71	749.054
5	1026243	26.81	751.832
5	1032401	26.91	754.609
5	1038581	27.01	757.387
5	1044739	27.11	760.165
5	1050897	27.21	762.943
5	1057055	27.31	765.721
5	1063213	27.41	768.498
5	1069371	27.51	771.276
5	1075529	27.61	774.054
5	1081687	27.71	776.832
5	1087845	27.81	779.609
5	1094003	27.91	782.387
5	1100183	28.01	785.165
5	1106341	28.11	787.943
5	1112499	28.21	790.721
5	1118657	28.31	793.498
5	1124815	28.41	796.276
5	1130973	28.51	799.054
5	1137131	28.61	801.832
5	1143289	28.71	804.609
5	1149447	28.81	807.387
5	1155605	28.91	810.165
5	1161785	29.01	812.943
5	1167943	29.11	815.721
5	1174101	29.21	818.498
5	1180259	29.31	821.276
5	1186417	29.41	824.054
5	1192575	29.51	826.832
5	1198733	29.61	829.609
5	1204891	29.71	832.387
4	632	1.11	27.78
4	1192	1.21	27.7799
4	1752	1.31	27.7798
4	2312	1.41	27.7797
4	2873	1.51	27.7796
4	3433	1.61	27.7795
4	3993	1.71	27.7794
4	4554	1.81	27.7792
4	5114	1.91	27.7791
4	5680	2.01	27.7789
4	6240	2.11	27.7788
4	6800	2.21	27.7787
4	7360	2.31	27.7785
4	7920	2.41	27.7784
4	8480	2.51	27.7783
4	9040	2.61	27.7782
4	9600	2.71	27.7782
4	10160	2.81	27.7781
4	10720	2.91	27.778
4	11284	3.01	27.7779
4	11844	3.11	27.7779
4	12404	3.21	27.7779
4	12964	3.31	27.7778
4	13524	3.41	27.7778
4	14084	3.51	27.7778
4	14644	3.61	27.7777
4	15204	3.71	27.7777
4	15764	3.81	27.7777
4	16324	3.91	27.7777
4	16888	4.01	27.7777
4	17448	4.11	27.7777
4	18008	4.21	27.7777
4	18568	4.31	27.7777
4	19128	4.41	27.7777
4	19688	4.51	27.7777
4	20248	4.61	27.7777
4	20808	4.71	27.7777
4	21368	4.81	27.7777
4	21928	4.91	27.7777
4	22492	5.01	27.7777
4	23052	5.11	27.7777
4	23612	5.21	27.7778
4	24172	5.31	27.7778
4	24732	5.41	27.7778
4	25292	5.51	27.7778
4	25852	5.61	27.7778
4	26412	5.71	27.7778
4	26972	5.81	27.7778
4	27532	5.91	27.7778
4	28096	6.01	27.7778
4	28656	6.11	27.7778
4	29216	6.21	27.7778
4	29776	6.31	27.7778
4	30336	6.41	27.7778
4	30896	6.51	27.7778
4	31456	6.61	27.7778
4	32016	6.71	27.7778
4	32576	6.81	27.7778
4	33136	6.91	27.7778
4	33700	7.01	27.7778
4	34260	7.11	27.7778
4	34820	7.21	27.7778
4	35380	7.31	27.7778
4	35940	7.41	27.7778
4	36500	7.51	27.7778
4	37060	7.61	27.7778
4	37620	7.71	27.7778
4	38180	7.81	27.7778
4	38740	7.91	27.7778
4	39304	8.01	27.7778
4	39864	8.11	27.7778
4	40424	8.21	27.7778
4	40984	8.31	27.7778
4	41544	8.41	27.7778
4	42104	8.51	27.7778
4	42664	8.61	27.7778
4	43224	8.71	27.7778
4	43784	8.81	27.7778
4	44344	8.91	27.7778
4	44908	9.01	27.7778
4	45468	9.11	27.7778
4	46028	9.21	27.7778
4	46588	9.31	27.7778
4	47148	9.41	27.7778
4	47708	9.51	27.7778
4	48268	9.61	27.7778
4	48828	9.71	27.7778
4	49388	9.81	27.7778
4	49948	9.91	27.7778
4	50512	10.01	27.7778
4	51072	10.11	27.7778
4	51632	10.21	27.7778
4	52192	10.31	27.7778
4	52752	10.41	27.7778
4	53312	10.51	27.7778
4	53872	10.61	27.7778
4	54432	10.71	27.7778
4	54992	10.81	27.7778
4	55552	10.91	27.7778
4	56117	11.01	27.7778
4	59091	11.11	27.7778
4	65253	11.21	27.7778
4	71413	11.31	27.7778
4	77572	11.41	27.7778
4	83731	11.51	27.7778
4	89889	11.61	27.7778
4	96052	11.71	27.7778
4	102212	11.81	27.7778
4	108370	11.91	27.7778
4	114551	12.01	27.7778
4	120709	12.11	27.7778
4	126867	12.21	27.7778
4	133025	12.31	27.7778
4	139183	12.41	27.7778
4	145341	12.51	27.7778
4	151499	12.61	27.7778
4	157657	12.71	27.7778
4	163815	12.81	27.7778
4	169973	12.91	27.7778
4	176153	13.01	27.7778
4	182311	13.11	27.7778
4	188469	13.21	27.7778
4	194627	13.31	27.7778
4	200785	13.41	27.7778
4	206943	13.51	27.7778
4	213101	13.61	27.7778
4	219259	13.71	27.7778
4	225417	13.81	27.7778
4	231575	13.91	27.7778
4	237755	14.01	27.7778
4	243913	14.11	27.7778
4	250071	14.21	27.7778
4	256229	14.31	27.7778
4	262387	14.41	27.7778
4	268545	14.51	27.7778
4	274703	14.61	27.7778
4	280861	14.71	27.7778
4	287019	14.81	27.7778
4	293177	14.91	27.7778
4	299357	15.01	27.7778
4	305515	15.11	27.7778
4	311673	15.21	27.7778
4	317831	15.31	27.7778
4	323989	15.41	27.7778
4	330147	15.51	27.7778
4	336305	15.61	27.7778
4	342463	15.71	27.7778
4	348621	15.81	27.7778
4	354779	15.91	27.7778
4	360959	16.01	27.7778
4	367117	16.11	27.7778
4	373275	16.21	27.7778
4	379433	16.31	27.7778
4	385591	16.41	27.7778
4	391749	16.51	27.7778
4	397907	16.61	27.7778
4	404065	16.71	27.7778
4	410223	16.81	27.7778
4	416381	16.91	27.7778
4	422561	17.01	27.7778
4	428719	17.11	27.7778
4	434877	17.21	27.7778
4	441035	17.31	27.7778
4	447193	17.41	27.7778
4	453351	17.51	27.7778
4	459509	17.61	27.7778
4	465667	17.71	27.7778
4	471825	17.81	27.7778
4	477983	17.91	27.7778
4	484163	18.01	27.7778
4	490321	18.11	27.7778
4	496479	18.21	27.7778
4	502637	18.31	27.7778
4	508795	18.41	27.7778
4	514953	18.51	27.7778
4	521111	18.61	27.7778
4	527269	18.71	27.7778
4	533427	18.81	27.7778
4	539585	18.91	27.7778
4	545765	19.01	27.7778
4	551923	19.11	27.7778
4	558081	19.21	27.7778
4	564239	19.31	27.7778
4	570397	19.41	27.7778
4	576555	19.51	27.7778
4	582713	19.61	27.7778
4	588871	19.71	27.7778
4	595029	19.81	27.7778
4	601187	19.91	27.7778
4	607367	20.01	27.7778
4	613525	20.11	27.7778
4	619683	20.21	27.7778
4	625841	20.31	27.7778
4	631999	20.41	27.7778
4	638157	20.51	27.7778
4	644315	20.61	27.7778
4	650473	20.71	27.7778
4	656631	20.81	27.7778
4	662789	20.91	27.7778
4	668969	21.01	27.7778
4	675127	21.11	27.7778
4	681285	21.21	27.7778
4	687443	21.31	27.7778
4	693601	21.41	27.7778
4	699759	21.51	27.7778
4	705917	21.61	27.7778
4	712075	21.71	27.7778
4	718233	21.81	27.7778
4	724391	21.91	27.7778
4	730571	22.01	27.7778
4	736729	22.11	27.7778
4	742887	22.21	27.7778
4	749045	22.31	27.7778
4	755203	22.41	27.7778
4	761361	22.51	27.7778
4	767519	22.61	27.7778
4	773677	22.71	27.7778
4	779835	22.81	27.7778
4	785993	22.91	27.7778
4	792173	23.01	27.7778
4	798331	23.11	27.7778
4	804489	23.21	27.7778
4	810647	23.31	27.7778
4	816805	23.41	27.7778
4	822963	23.51	27.7778
4	829121	23.61	27.7778
4	835279	23.71	27.7778
4	841437	23.81	27.7778
4	847595	23.91	27.7778
4	853775	24.01	27.7778
4	859933	24.11	27.7778
4	866091	24.21	27.7778
4	872249	24.31	27.7778
4	878407	24.41	27.7778
4	884565	24.51	27.7778
4	890723	24.61	27.7778
4	896881	24.71	27.7778
4	903039	24.81	27.7778
4	909197	24.91	27.7778
4	915377	25.01	27.7778
4	921535	25.11	27.7778
4	927693	25.21	27.7778
4	933851	25.31	27.7778
4	940009	25.41	27.7778
4	946167	25.51	27.7778
4	952325	25.61	27.7778
4	958483	25.71	27.7778
4	964641	25.81	27.7778
4	970799	25.91	27.7778
4	976979	26.01	27.7778
4	983137	26.11	27.7778
4	989295	26.21	27.7778
4	995453	26.31	27.7778
4	1001611	26.41	27.7778
4	1007769	26.51	27.7778
4	1013927	26.61	27.7778
4	1020085	26.71	27.7778
4	1026243	26.81	27.7778
4	1032401	26.91	27.7778
4	1038581	27.01	27.7778
4	1044739	27.11	27.7778
4	1050897	27.21	27.7778
4	1057055	27.31	27.7778
4	1063213	27.41	27.7778
4	1069371	27.51	27.7778
4	1075529	27.61	27.7778
4	1081687	27.71	27.7778
4	1087845	27.81	27.7778
4	1094003	27.91	27.7778
4	1100183	28.01	27.7778
4	1106341	28.11	27.7778
4	1112499	28.21	27.7778
4	1118657	28.31	27.7778
4	1124815	28.41	27.7778
4	1130973	28.51	27.7778
4	1137131	28.61	27.7778
4	1143289	28.71	27.7778
4	1149447	28.81	27.7778
4	1155605	28.91	27.7778
4	1161785	29.01	27.7778
4	1167943	29.11	27.7778
4	1174101	29.21	27.7778
4	1180259	29.31	27.7778
4	1186417	29.41	27.7778
4	1192575	29.51	27.7778
4	1198733	29.61	27.7778
4	1204891	29.71	27.7778
2	632	1.11	0
2	1192	1.21	0
2	1752	1.31	0
2	2312	1.41	0
2	2873	1.51	0
2	3433	1.61	0
2	3993	1.71	0
2	4554	1.81	0
2	5114	1.91	0
2	5680	2.01	0
2	6240	2.11	0
2	6800	2.21	0
2	7360	2.31	0
2	7920	2.41	0
2	8480	2.51	0
2	9040	2.61	0
2	9600	2.71	0
2	10160	2.81	0
2	10720	2.91	0
2	11284	3.01	0
2	11844	3.11	0
2	12404	3.21	0
2	12964	3.31	0
2	13524	3.41	0
2	14084	3.51	0
2	14644	3.61	0
2	15204	3.71	0
2	15764	3.81	0
2	16324	3.91	0
2	16888	4.01	0
2	17448	4.11	0
2	18008	4.21	0
2	18568	4.31	0
2	19128	4.41	0
2	19688	4.51	0
2	20248	4.61	0
2	20808	4.71	0
2	21368	4.81	0
2	21928	4.91	0
2	22492	5.01	0
2	23052	5.11	0
2	23612	5.21	0
2	24172	5.31	0
2	24732	5.41	0
2	25292	5.51	0
2	25852	5.61	0
2	26412	5.71	0
2	26972	5.81	0
2	27532	5.91	0
2	28096	6.01	0
2	28656	6.11	0
2	29216	6.21	0
2	29776	6.31	0
2	30336	6.41	0
2	30896	6.51	0
2	31456	6.61	0
2	32016	6.71	0
2	32576	6.81	0
2	33136	6.91	0
2	33700	7.01	0
2	34260	7.11	0
2	34820	7.21	0
2	35380	7.31	0
2	35940	7.41	0
2	36500	7.51	0
2	37060	7.61	0
2	37620	7.71	0
2	38180	7.81	0
2	38740	7.91	0
2	39304	8.01	0
2	39864	8.11	0
2	40424	8.21	0
2	40984	8.31	0
2	41544	8.41	0
2	42104	8.51	0
2	42664	8.61	0
2	43224	8.71	0
2	43784	8.81	0
2	44344	8.91	0
2	44908	9.01	0
2	45468	9.11	0
2	46028	9.21	0
2	46588	9.31	0
2	47148	9.41	0
2	47708	9.51	0
2	48268	9.61	0
2	48828	9.71	0
2	49388	9.81	0
2	49948	9.91	0
2	50512	10.01	0
2	51072	10.11	0
2	51632	10.21	0
2	52192	10.31	0
2	52752	10.41	0
2	53312	10.51	0
2	53872	10.61	0
2	54432	10.71	0
2	54992	10.81	0
2	55552	10.91	0
2	56117	11.01	0
2	59091	11.11	0
2	65253	11.21	0
2	71413	11.31	0
2	77572	11.41	0
2	83731	11.51	0
2	89889	11.61	0
2	96052	11.71	0
2	102212	11.81	0
2	108370	11.91	0
2	114551	12.01	0
2	120709	12.11	0
2	126867	12.21	0
2	133025	12.31	0
2	139183	12.41	0
2	145341	12.51	0
2	151499	12.61	0
2	157657	12.71	0
2	163815	12.81	0
2	169973	12.91	0
2	176153	13.01	0
2	182311	13.11	0
2	188469	13.21	0
2	194627	13.31	0
2	200785	13.41	0
2	206943	13.51	0
2	213101	13.61	0
2	219259	13.71	0
2	225417	13.81	0
2	231575	13.91	0
2	237755	14.01	0
2	243913	14.11	0
2	250071	14.21	0
2	256229	14.31	0
2	262387	14.41	0
2	268545	14.51	0
2	274703	14.61	0
2	280861	14.71	0
2	287019	14.81	0
2	293177	14.91	0
2	299357	15.01	0
2	305515	15.11	0
2	311673	15.21	0
2	317831	15.31	0
2	323989	15.41	0
2	330147	15.51	0
2	336305	15.61	0
2	342463	15.71	0
2	348621	15.81	0
2	354779	15.91	0
2	360959	16.01	0
2	367117	16.11	0
2	373275	16.21	0
2	379433	16.31	0
2	385591	16.41	0
2	391749	16.51	0
2	397907	16.61	0
2	404065	16.71	0
2	410223	16.81	0
2	416381	16.91	0
2	422561	17.01	0
2	428719	17.11	0
2	434877	17.21	0
2	441035	17.31	0
2	447193	17.41	0
2	453351	17.51	0
2	459509	17.61	0
2	465667	17.71	0
2	471825	17.81	0
2	477983	17.91	0
2	484163	18.01	0
2	490321	18.11	0
2	496479	18.21	0
2	502637	18.31	0
2	508795	18.41	0
2	514953	18.51	0
2	521111	18.61	0
2	527269	18.71	0
2	533427	18.81	0
2	539585	18.91	0
2	545765	19.01	0
2	551923	19.11	0
2	558081	19.21	0
2	564239	19.31	0
2	570397	19.41	0
2	576555	19.51	0
2	582713	19.61	0
2	588871	19.71	0
2	595029	19.81	0
2	601187	19.91	0
2	607367	20.01	0
2	613525	20.11	0
2	619683	20.21	0
2	625841	20.31	0
2	631999	20.41	0
2	638157	20.51	0
2	644315	20.61	0
2	650473	20.71	0
2	656631	20.81	0
2	662789	20.91	0
2	668969	21.01	0
2	675127	21.11	0
2	681285	21.21	0
2	687443	21.31	0
2	693601	21.41	0
2	699759	21.51	0
2	705917	21.61	0
2	712075	21.71	0
2	718233	21.81	0
2	724391	21.91	0
2	730571	22.01	0
2	736729	22.11	0
2	742887	22.21	0
2	749045	22.31	0
2	755203	22.41	0
2	761361	22.51	0
2	767519	22.61	0
2	773677	22.71	0
2	779835	22.81	0
2	785993	22.91	0
2	792173	23.01	0
2	798331	23.11	0
2	804489	23.21	0
2	810647	23.31	0
2	816805	23.41	0
2	822963	23.51	0
2	829121	23.61	0
2	835279	23.71	0
2	841437	23.81	0
2	847595	23.91	0
2	853775	24.01	0
2	859933	24.11	0
2	866091	24.21	0
2	872249	24.31	0
2	878407	24.41	0
2	884565	24.51	0
2	890723	24.61	0
2	896881	24.71	0
2	903039	24.81	0
2	909197	24.91	0
2	915377	25.01	0
2	921535	25.11	0
2	927693	25.21	0
2	933851	25.31	0
2	940009	25.41	0
2	946167	25.51	0
2	952325	25.61	0
2	958483	25.71	0
2	964641	25.81	0
2	970799	25.91	0
2	976979	26.01	0
2	983137	26.11	0
2	989295	26.21	0
2	995453	26.31	0
2	1001611	26.41	0
2	1007769	26.51	0
2	1013927	26.61	0
2	1020085	26.71	0
2	1026243	26.81	0
2	1032401	26.91	0
2	1038581	27.01	0
2	1044739	27.11	0
2	1050897	27.21	0
2	1057055	27.31	0
2	1063213	27.41	0
2	1069371	27.51	0
2	1075529	27.61	0
2	1081687	27.71	0
2	1087845	27.81	0
2	1094003	27.91	0
2	1100183	28.01	0
2	1106341	28.11	0
2	1112499	28.21	0
2	1118657	28.31	0
2	1124815	28.41	0
2	1130973	28.51	0
2	1137131	28.61	0
2	1143289	28.71	0
2	1149447	28.81	0
2	1155605	28.91	0
2	1161785	29.01	0
2	1167943	29.11	0
2	1174101	29.21	0
2	1180259	29.31	0
2	1186417	29.41	0
2	1192575	29.51	0
2	1198733	29.61	0
2	1204891	29.71	0
1	632	1.11	-1
1	1192	1.21	-1
1	1752	1.31	-1
1	2312	1.41	-1
1	2873	1.51	-1
1	3433	1.61	-1
1	3993	1.71	-1
1	4554	1.81	-1
1	5114	1.91	-1
1	5680	2.01	-1
1	6240	2.11	-1
1	6800	2.21	-1
1	7360	2.31	-1
1	7920	2.41	-1
1	8480	2.51	-1
1	9040	2.61	-1
1	9600	2.71	-1
1	10160	2.81	-1
1	10720	2.91	-1
1	11284	3.01	-1
1	11844	3.11	-1
1	12404	3.21	-1
1	12964	3.31	-1
1	13524	3.41	-1
1	14084	3.51	-1
1	14644	3.61	-1
1	15204	3.71	-1
1	15764	3.81	-1
1	16324	3.91	-1
1	16888	4.01	-1
1	17448	4.11	-1
1	18008	4.21	-1
1	18568	4.31	-1
1	19128	4.41	-1
1	19688	4.51	-1
1	20248	4.61	-1
1	20808	4.71	-1
1	21368	4.81	-1
1	21928	4.91	-1
1	22492	5.01	-1
1	23052	5.11	-1
1	23612	5.21	-1
1	24172	5.31	-1
1	24732	5.41	-1
1	25292	5.51	-1
1	25852	5.61	-1
1	26412	5.71	-1
1	26972	5.81	-1
1	27532	5.91	-1
1	28096	6.01	-1
1	28656	6.11	-1
1	29216	6.21	-1
1	29776	6.31	-1
1	30336	6.41	-1
1	30896	6.51	-1
1	31456	6.61	-1
1	32016	6.71	-1
1	32576	6.81	-1
1	33136	6.91	-1
1	33700	7.01	-1
1	34260	7.11	-1
1	34820	7.21	-1
1	35380	7.31	-1
1	35940	7.41	-1
1	36500	7.51	-1
1	37060	7.61	-1
1	37620	7.71	-1
1	38180	7.81	-1
1	38740	7.91	-1
1	39304	8.01	-1
1	39864	8.11	-1
1	40424	8.21	-1
1	40984	8.31	-1
1	41544	8.41	-1
1	42104	8.51	-1
1	42664	8.61	-1
1	43224	8.71	-1
1	43784	8.81	-1
1	44344	8.91	-1
1	44908	9.01	-1
1	45468	9.11	-1
1	46028	9.21	-1
1	46588	9.31	-1
1	47148	9.41	-1
1	47708	9.51	-1
1	48268	9.61	-1
1	48828	9.71	-1
1	49388	9.81	-1
1	49948	9.91	-1
1	50512	10.01	-1
1	51072	10.11	-1
1	51632	10.21	-1
1	52192	10.31	-1
1	52752	10.41	-1
1	53312	10.51	-1
1	53872	10.61	-1
1	54432	10.71	-1
1	54992	10.81	-1
1	55552	10.91	-1
1	56117	11.01	-1
1	59091	11.11	-1
1	65253	11.21	-1
1	71413	11.31	-1
1	77572	11.41	-1
1	83731	11.51	-1
1	89889	11.61	-1
1	96052	11.71	-1
1	102212	11.81	-1
1	108370	11.91	-1
1	114551	12.01	-1
1	120709	12.11	-1
1	126867	12.21	-1
1	133025	12.31	-1
1	139183	12.41	-1
1	145341	12.51	-1
1	151499	12.61	-1
1	157657	12.71	-1
1	163815	12.81	-1
1	169973	12.91	-1
1	176153	13.01	-1
1	182311	13.11	-1
1	188469	13.21	-1
1	194627	13.31	-1
1	200785	13.41	-1
1	206943	13.51	-1
1	213101	13.61	-1
1	219259	13.71	-1
1	225417	13.81	-1
1	231575	13.91	-1
1	237755	14.01	-1
1	243913	14.11	-1
1	250071	14.21	-1
1	256229	14.31	-1
1	262387	14.41	-1
1	268545	14.51	-1
1	274703	14.61	-1
1	280861	14.71	-1
1	287019	14.81	-1
1	293177	14.91	-1
1	299357	15.01	-1
1	305515	15.11	-1
1	311673	15.21	-1
1	317831	15.31	-1
1	323989	15.41	-1
1	330147	15.51	-1
1	336305	15.61	-1
1	342463	15.71	-1
1	348621	15.81	-1
1	354779	15.91	-1
1	360959	16.01	-1
1	367117	16.11	-1
1	373275	16.21	-1
1	379433	16.31	-1
1	385591	16.41	-1
1	391749	16.51	-1
1	397907	16.61	-1
1	404065	16.71	-1
1	410223	16.81	-1
1	416381	16.91	-1
1	422561	17.01	-1
1	428719	17.11	-1
1	434877	17.21	-1
1	441035	17.31	-1
1	447193	17.41	-1
1	453351	17.51	-1
1	459509	17.61	-1
1	465667	17.71	-1
1	471825	17.81	-1
1	477983	17.91	-1
1	484163	18.01	-1
1	490321	18.11	-1
1	496479	18.21	-1
1	502637	18.31	-1
1	508795	18.41	-1
1	514953	18.51	-1
1	521111	18.61	-1
1	527269	18.71	-1
1	533427	18.81	-1
1	539585	18.91	-1
1	545765	19.01	-1
1	551923	19.11	-1
1	558081	19.21	-1
1	564239	19.31	-1
1	570397	19.41	-1
1	576555	19.51	-1
1	582713	19.61	-1
1	588871	19.71	-1
1	595029	19.81	-1
1	601187	19.91	-1
1	607367	20.01	-1
1	613525	20.11	-1
1	619683	20.21	-1
1	625841	20.31	-1
1	631999	20.41	-1
1	638157	20.51	-1
1	644315	20.61	-1
1	650473	20.71	-1
1	656631	20.81	-1
1	662789	20.91	-1
1	668969	21.01	-1
1	675127	21.11	-1
1	681285	21.21	-1
1	687443	21.31	-1
1	693601	21.41	-1
1	699759	21.51	-1
1	705917	21.61	-1
1	712075	21.71	-1
1	718233	21.81	-1
1	724391	21.91	-1
1	730571	22.01	-1
1	736729	22.11	-1
1	742887	22.21	-1
1	749045	22.31	-1
1	755203	22.41	-1
1	761361	22.51	-1
1	767519	22.61	-1
1	773677	22.71	-1
1	779835	22.81	-1
1	785993	22.91	-1
1	792173	23.01	-1
1	798331	23.11	-1
1	804489	23.21	-1
1	810647	23.31	-1
1	816805	23.41	-1
1	822963	23.51	-1
1	829121	23.61	-1
1	835279	23.71	-1
1	841437	23.81	-1
1	847595	23.91	-1
1	853775	24.01	-1
1	859933	24.11	-1
1	866091	24.21	-1
1	872249	24.31	-1
1	878407	24.41	-1
1	884565	24.51	-1
1	890723	24.61	-1
1	896881	24.71	-1
1	903039	24.81	-1
1	909197	24.91	-1
1	915377	25.01	-1
1	921535	25.11	-1
1	927693	25.21	-1
1	933851	25.31	-1
1	940009	25.41	-1
1	946167	25.51	-1
1	952325	25.61	-1
1	958483	25.71	-1
1	964641	25.81	-1
1	970799	25.91	-1
1	976979	26.01	-1
1	983137	26.11	-1
1	989295	26.21	-1
1	995453	26.31	-1
1	1001611	26.41	-1
1	1007769	26.51	-1
1	1013927	26.61	-1
1	1020085	26.71	-1
1	1026243	26.81	-1
1	1032401	26.91	-1
1	1038581	27.01	-1
1	1044739	27.11	-1
1	1050897	27.21	-1
1	1057055	27.31	-1
1	1063213	27.41	-1
1	1069371	27.51	-1
1	1075529	27.61	-1
1	1081687	27.71	-1
1	1087845	27.81	-1
1	1094003	27.91	-1
1	1100183	28.01	-1
1	1106341	28.11	-1
1	1112499	28.21	-1
1	1118657	28.31	-1
1	1124815	28.41	-1
1	1130973	28.51	-1
1	1137131	28.61	-1
1	1143289	28.71	-1
1	1149447	28.81	-1
1	1155605	28.91	-1
1	1161785	29.01	-1
1	1167943	29.11	-1
1	1174101	29.21	-1
1	1180259	29.31	-1
1	1186417	29.41	-1
1	1192575	29.51	-1
1	1198733	29.61	-1
1	1204891	29.71	-1
3	632	1.11	0
3	1192	1.21	0
3	1752	1.31	0
3	2312	1.41	0
3	2873	1.51	0
3	3433	1.61	0
3	3993	1.71	0
3	4554	1.81	0
3	5114	1.91	0
3	5680	2.01	0
3	6240	2.11	0
3	6800	2.21	0
3	7360	2.31	0
3	7920	2.41	0
3	8480	2.51	0
3	9040	2.61	0
3	9600	2.71	0
3	10160	2.81	0
3	10720	2.91	0
3	11284	3.01	0
3	11844	3.11	0
3	12404	3.21	0
3	12964	3.31	0
3	13524	3.41	0
3	14084	3.51	0
3	14644	3.61	0
3	15204	3.71	0
3	15764	3.81	0
3	16324	3.91	0
3	16888	4.01	0
3	17448	4.11	0
3	18008	4.21	0
3	18568	4.31	0
3	19128	4.41	0
3	19688	4.51	0
3	20248	4.61	0
3	20808	4.71	0
3	21368	4.81	0
3	21928	4.91	0
3	22492	5.01	0
3	23052	5.11	0
3	23612	5.21	0
3	24172	5.31	0
3	24732	5.41	0
3	25292	5.51	0
3	25852	5.61	0
3	26412	5.71	0
3	26972	5.81	0
3	27532	5.91	0
3	28096	6.01	0
3	28656	6.11	0
3	29216	6.21	0
3	29776	6.31	0
3	30336	6.41	0
3	30896	6.51	0
3	31456	6.61	0
3	32016	6.71	0
3	32576	6.81	0
3	33136	6.91	0
3	33700	7.01	0
3	34260	7.11	0
3	34820	7.21	0
3	35380	7.31	0
3	35940	7.41	0
3	36500	7.51	0
3	37060	7.61	0
3	37620	7.71	0
3	38180	7.81	0
3	38740	7.91	0
3	39304	8.01	0
3	39864	8.11	0
3	40424	8.21	0
3	40984	8.31	0
3	41544	8.41	0
3	42104	8.51	0
3	42664	8.61	0
3	43224	8.71	0
3	43784	8.81	0
3	44344	8.91	0
3	44908	9.01	0
3	45468	9.11	0
3	46028	9.21	0
3	46588	9.31	0
3	47148	9.41	0
3	47708	9.51	0
3	48268	9.61	0
3	48828	9.71	0
3	49388	9.81	0
3	49948	9.91	0
3	50512	10.01	0
3	51072	10.11	0
3	51632	10.21	0
3	52192	10.31	0
3	52752	10.41	0
3	53312	10.51	0
3	53872	10.61	0
3	54432	10.71	0
3	54992	10.81	0
3	55552	10.91	0
3	56117	11.01	0
3	59091	11.11	0
3	65253	11.21	0
3	71413	11.31	0
3	77572	11.41	0
3	83731	11.51	0
3	89889	11.61	0
3	96052	11.71	0
3	102212	11.81	0
3	108370	11.91	0
3	114551	12.01	0
3	120709	12.11	0
3	126867	12.21	0
3	133025	12.31	0
3	139183	12.41	0
3	145341	12.51	0
3	151499	12.61	0
3	157657	12.71	0
3	163815	12.81	0
3	169973	12.91	0
3	176153	13.01	0
3	182311	13.11	0
3	188469	13.21	0
3	194627	13.31	0
3	200785	13.41	0
3	206943	13.51	0
3	213101	13.61	0
3	219259	13.71	0
3	225417	13.81	0
3	231575	13.91	0
3	237755	14.01	0
3	243913	14.11	0
3	250071	14.21	0
3	256229	14.31	0
3	262387	14.41	0
3	268545	14.51	0
3	274703	14.61	0
3	280861	14.71	0
3	287019	14.81	0
3	293177	14.91	0
3	299357	15.01	0
3	305515	15.11	0
3	311673	15.21	0
3	317831	15.31	0
3	323989	15.41	0
3	330147	15.51	0
3	336305	15.61	0
3	342463	15.71	0
3	348621	15.81	0
3	354779	15.91	0
3	360959	16.01	0
3	367117	16.11	0
3	373275	16.21	0
3	379433	16.31	0
3	385591	16.41	0
3	391749	16.51	0
3	397907	16.61	0
3	404065	16.71	0
3	410223	16.81	0
3	416381	16.91	0
3	422561	17.01	0
3	428719	17.11	0
3	434877	17.21	0
3	441035	17.31	0
3	447193	17.41	0
3	453351	17.51	0
3	459509	17.61	0
3	465667	17.71	0
3	471825	17.81	0
3	477983	17.91	0
3	484163	18.01	0
3	490321	18.11	0
3	496479	18.21	0
3	502637	18.31	0
3	508795	18.41	0
3	514953	18.51	0
3	521111	18.61	0
3	527269	18.71	0
3	533427	18.81	0
3	539585	18.91	0
3	545765	19.01	0
3	551923	19.11	0
3	558081	19.21	0
3	564239	19.31	0
3	570397	19.41	0
3	576555	19.51	0
3	582713	19.61	0
3	588871	19.71	0
3	595029	19.81	0
3	601187	19.91	0
3	607367	20.01	0
3	613525	20.11	0
3	619683	20.21	0
3	625841	20.31	0
3	631999	20.41	0
3	638157	20.51	0
3	644315	20.61	0
3	650473	20.71	0
3	656631	20.81	0
3	662789	20.91	0
3	668969	21.01	0
3	675127	21.11	0
3	681285	21.21	0
3	687443	21.31	0
3	693601	21.41	0
3	699759	21.51	0
3	705917	21.61	0
3	712075	21.71	0
3	718233	21.81	0
3	724391	21.91	0
3	730571	22.01	0
3	736729	22.11	0
3	742887	22.21	0
3	749045	22.31	0
3	755203	22.41	0
3	761361	22.51	0
3	767519	22.61	0
3	773677	22.71	0
3	779835	22.81	0
3	785993	22.91	0
3	792173	23.01	0
3	798331	23.11	0
3	804489	23.21	0
3	810647	23.31	0
3	816805	23.41	0
3	822963	23.51	0
3	829121	23.61	0
3	835279	23.71	0
3	841437	23.81	0
3	847595	23.91	0
3	853775	24.01	0
3	859933	24.11	0
3	866091	24.21	0
3	872249	24.31	0
3	878407	24.41	0
3	884565	24.51	0
3	890723	24.61	0
3	896881	24.71	0
3	903039	24.81	0
3	909197	24.91	0
3	915377	25.01	0
3	921535	25.11	0
3	927693	25.21	0
3	933851	25.31	0
3	940009	25.41	0
3	946167	25.51	0
3	952325	25.61	0
3	958483	25.71	0
3	964641	25.81	0
3	970799	25.91	0
3	976979	26.01	0
3	983137	26.11	0
3	989295	26.21	0
3	995453	26.31	0
3	1001611	26.41	0
3	1007769	26.51	0
3	1013927	26.61	0
3	1020085	26.71	0
3	1026243	26.81	0
3	1032401	26.91	0
3	1038581	27.01	0
3	1044739	27.11	0
3	1050897	27.21	0
3	1057055	27.31	0
3	1063213	27.41	0
3	1069371	27.51	0
3	1075529	27.61	0
3	1081687	27.71	0
3	1087845	27.81	0
3	1094003	27.91	0
3	1100183	28.01	0
3	1106341	28.11	0
3	1112499	28.21	0
3	1118657	28.31	0
3	1124815	28.41	0
3	1130973	28.51	0
3	1137131	28.61	0
3	1143289	28.71	0
3	1149447	28.81	0
3	1155605	28.91	0
3	1161785	29.01	0
3	1167943	29.11	0
3	1174101	29.21	0
3	1180259	29.31	0
3	1186417	29.41	0
3	1192575	29.51	0
3	1198733	29.61	0
3	1204891	29.71	0
11	5599	2	0
11	11204	3	0
11	16808	4	0
11	22412	5	0
11	28016	6	0
11	33620	7	0
11	39224	8	0
11	44828	9	0
11	50432	10	0
11	56037	11	0
11	113951	12	0
11	175553	13	0
11	237155	14	0
11	298757	15	0
11	360359	16	0
11	421961	17	0
11	483563	18	0
11	545165	19	0
11	606767	20	0
11	668369	21	0
11	729971	22	0
11	791573	23	0
11	853175	24	0
11	914777	25	0
11	976379	26	0
11	1037981	27	0
11	1099583	28	0
11	1161185	29	0
10	5599	2	0.017369
10	11204	3	0.01985
10	16808	4	0.01985
10	22412	5	0.01985
10	28016	6	0.01985
10	33620	7	0.01985
10	39224	8	0.01985
10	44828	9	0.01985
10	50432	10	0.01985
10	56037	11	0.01985
10	113951	12	0.099706
10	175553	13	0.10913
10	237155	14	0.10913
10	298757	15	0.10913
10	360359	16	0.10913
10	421961	17	0.10913
10	483563	18	0.10913
10	545165	19	0.10913
10	606767	20	0.10913
10	668369	21	0.10913
10	729971	22	0.10913
10	791573	23	0.10913
10	853175	24	0.10913
10	914777	25	0.10913
10	976379	26	0.10913
10	1037981	27	0.10913
10	1099583	28	0.10913
10	1161185	29	0.10913
9	5599	2	0
9	11204	3	0
9	16808	4	0
9	22412	5	0
9	28016	6	0
9	33620	7	0
9	39224	8	0
9	44828	9	0
9	50432	10	0
9	56037	11	0
9	113951	12	0
9	175553	13	0
9	237155	14	0
9	298757	15	0
9	360359	16	0
9	421961	17	0
9	483563	18	0
9	545165	19	0
9	606767	20	0
9	668369	21	0
9	729971	22	0
9	791573	23	0
9	853175	24	0
9	914777	25	0
9	976379	26	0
9	1037981	27	0
9	1099583	28	0
9	1161185	29	0
31	633	1.11	0
31	1193	1.21	-0.00217285
31	1753	1.31	-0.00213775
31	2313	1.41	-0.0020631
31	2874	1.51	-0.00195808
31	3434	1.61	-0.00183085
31	3994	1.71	-0.00172846
31	4555	1.81	-0.00157681
31	5115	1.91	-0.00146105
31	5681	2.01	-0.00130536
31	6241	2.11	-0.00115331
31	6801	2.21	-0.00104775
31	7361	2.31	-0.000910733
31	7921	2.41	-0.000783914
31	8481	2.51	-0.000668494
31	9041	2.61	-0.000565227
31	9601	2.71	-0.000474485
31	10161	2.81	-0.000396326
31	10721	2.91	-0.00033054
31	11285	3.01	-0.000236741
31	11845	3.11	-0.000194553
31	12405	3.21	-0.000123291
31	12965	3.31	-0.000102323
31	13525	3.41	-5.07776e-05
31	14085	3.51	-7.92794e-06
31	14645	3.61	2.69549e-05
31	15205	3.71	1.46558e-05
31	15765	3.81	3.61469e-05
31	16325	3.91	5.21747e-05
31	16889	4.01	6.3421e-05
31	17449	4.11	7.05393e-05
31	18009	4.21	7.41479e-05
31	18569	4.31	7.48229e-05
31	19129	4.41	7.30949e-05
31	19689	4.51	6.94465e-05
31	20249	4.61	6.4311e-05
31	20809	4.71	5.80739e-05
31	21369	4.81	5.10725e-05
31	21929	4.91	4.35991e-05
31	22493	5.01	3.59033e-05
31	23053	5.11	2.81941e-05
31	23613	5.21	6.06133e-05
31	24173	5.31	5.30879e-05
31	24733	5.41	4.57286e-05
31	25293	5.51	3.8661e-05
31	25853	5.61	3.19804e-05
31	26413	5.71	2.57559e-05
31	26973	5.81	2.00341e-05
31	27533	5.91	1.48428e-05
31	28097	6.01	1.01937e-05
31	28657	6.11	6.08526e-06
31	29217	6.21	2.5057e-06
31	29777	6.31	-5.65314e-07
31	30337	6.41	-3.15445e-06
31	30897	6.51	-5.293e-06
31	31457	6.61	-7.01543e-06
31	32017	6.71	-8.35809e-06
31	32577	6.81	-9.35824e-06
31	33137	6.91	-1.0053e-05
31	33701	7.01	-1.04789e-05
31	34261	7.11	-1.0671e-05
31	34821	7.21	-1.06628e-05
31	35381	7.31	-1.04855e-05
31	35941	7.41	-1.01683e-05
31	36501	7.51	-9.73774e-06
31	37061	7.61	-9.21806e-06
31	37621	7.71	-8.6309e-06
31	38181	7.81	-7.99547e-06
31	38741	7.91	-7.32861e-06
31	39305	8.01	-6.64488e-06
31	39865	8.11	-5.95675e-06
31	40425	8.21	-5.27466e-06
31	40985	8.31	-4.60726e-06
31	41545	8.41	-3.9615e-06
31	42105	8.51	-3.34286e-06
31	42665	8.61	-2.75549e-06
31	43225	8.71	-2.20231e-06
31	43785	8.81	-1.6853e-06
31	44345	8.91	-1.20547e-06
31	44909	9.01	-7.63141e-07
31	45469	9.11	-3.57977e-07
31	46029	9.21	1.08567e-08
31	46589	9.31	3.44609e-07
31	47149	9.41	6.44846e-07
31	47709	9.51	9.13374e-07
31	48269	9.61	1.15216e-06
31	48829	9.71	1.36329e-06
31	49389	9.81	1.54888e-06
31	49949	9.91	1.71107e-06
31	50513	10.01	1.85197e-06
31	51073	10.11	1.97364e-06
31	51633	10.21	2.07802e-06
31	52193	10.31	2.16701e-06
31	52753	10.41	2.24234e-06
31	53313	10.51	2.30566e-06
31	53873	10.61	2.35847e-06
31	54433	10.71	2.40215e-06
31	54993	10.81	2.43795e-06
31	55553	10.91	2.46701e-06
31	56118	11.01	2.49031e-06
31	59092	11.11	2.50875e-06
31	65254	11.21	2.52311e-06
31	71414	11.31	2.53407e-06
31	77573	11.41	2.54221e-06
31	83732	11.51	2.54803e-06
31	89890	11.61	2.55194e-06
31	96053	11.71	2.55431e-06
31	102213	11.81	2.5554e-06
31	108371	11.91	2.55547e-06
31	114552	12.01	2.55468e-06
31	120710	12.11	2.55319e-06
31	126868	12.21	2.5511e-06
31	133026	12.31	2.54849e-06
31	139184	12.41	2.54542e-06
31	145342	12.51	2.54191e-06
31	151500	12.61	2.53798e-06
31	157658	12.71	2.53364e-06
31	163816	12.81	2.52887e-06
31	169974	12.91	2.52367e-06
31	176154	13.01	2.51803e-06
31	182312	13.11	2.51191e-06
31	188470	13.21	2.5053e-06
31	194628	13.31	2.49818e-06
31	200786	13.41	2.49053e-06
31	206944	13.51	2.48234e-06
31	213102	13.61	2.47358e-06
31	219260	13.71	2.46425e-06
31	225418	13.81	2.45434e-06
31	231576	13.91	2.44384e-06
31	237756	14.01	2.43276e-06
31	243914	14.11	2.4211e-06
31	250072	14.21	2.40885e-06
31	256230	14.31	2.39604e-06
31	262388	14.41	2.38267e-06
31	268546	14.51	2.36876e-06
31	274704	14.61	2.35432e-06
31	280862	14.71	2.33938e-06
31	287020	14.81	2.32394e-06
31	293178	14.91	2.30804e-06
31	299358	15.01	2.2917e-06
31	305516	15.11	2.27494e-06
31	311674	15.21	2.25778e-06
31	317832	15.31	2.24025e-06
31	323990	15.41	2.22237e-06
31	330148	15.51	2.20417e-06
31	336306	15.61	2.18567e-06
31	342464	15.71	2.1669e-06
31	348622	15.81	2.14788e-06
31	354780	15.91	2.12863e-06
31	360960	16.01	2.10918e-06
31	367118	16.11	2.08955e-06
31	373276	16.21	2.06975e-06
31	379434	16.31	2.04982e-06
31	385592	16.41	2.02976e-06
31	391750	16.51	2.0096e-06
31	397908	16.61	1.98935e-06
31	404066	16.71	1.96904e-06
31	410224	16.81	1.94867e-06
31	416382	16.91	1.92827e-06
31	422562	17.01	1.90784e-06
31	428720	17.11	1.8874e-06
31	434878	17.21	1.86697e-06
31	441036	17.31	1.84654e-06
31	447194	17.41	1.82615e-06
31	453352	17.51	1.80579e-06
31	459510	17.61	1.78548e-06
31	465668	17.71	1.76522e-06
31	471826	17.81	1.74502e-06
31	477984	17.91	1.7249e-06
31	484164	18.01	1.70486e-06
31	490322	18.11	1.6849e-06
31	496480	18.21	1.66503e-06
31	502638	18.31	1.64527e-06
31	508796	18.41	1.6256e-06
31	514954	18.51	1.60605e-06
31	521112	18.61	1.58661e-06
31	527270	18.71	1.5673e-06
31	533428	18.81	1.5481e-06
31	539586	18.91	1.52903e-06
31	545766	19.01	1.5101e-06
31	551924	19.11	1.4913e-06
31	558082	19.21	1.47263e-06
31	564240	19.31	1.45411e-06
31	570398	19.41	1.43573e-06
31	576556	19.51	1.4175e-06
31	582714	19.61	1.39942e-06
31	588872	19.71	1.38148e-06
31	595030	19.81	1.3637e-06
31	601188	19.91	1.34607e-06
31	607368	20.01	1.3286e-06
31	613526	20.11	1.31129e-06
31	619684	20.21	1.29413e-06
31	625842	20.31	1.27714e-06
31	632000	20.41	1.2603e-06
31	638158	20.51	1.24363e-06
31	644316	20.61	1.22712e-06
31	650474	20.71	1.21077e-06
31	656632	20.81	1.19459e-06
31	662790	20.91	1.17857e-06
31	668970	21.01	1.16271e-06
31	675128	21.11	1.14702e-06
31	681286	21.21	1.1315e-06
31	687444	21.31	1.11614e-06
31	693602	21.41	1.10094e-06
31	699760	21.51	1.08591e-06
31	705918	21.61	1.07104e-06
31	712076	21.71	1.05634e-06
31	718234	21.81	1.0418e-06
31	724392	21.91	1.02743e-06
31	730572	22.01	1.01322e-06
31	736730	22.11	9.99172e-07
31	742888	22.21	9.85285e-07
31	749046	22.31	9.71561e-07
31	755204	22.41	9.57998e-07
31	761362	22.51	9.44594e-07
31	767520	22.61	9.31349e-07
31	773678	22.71	9.18263e-07
31	779836	22.81	9.05334e-07
31	785994	22.91	8.92562e-07
31	792174	23.01	8.79945e-07
31	798332	23.11	8.67483e-07
31	804490	23.21	8.55174e-07
31	810648	23.31	8.43019e-07
31	816806	23.41	8.31014e-07
31	822964	23.51	8.1916e-07
31	829122	23.61	8.07455e-07
31	835280	23.71	7.95899e-07
31	841438	23.81	7.84489e-07
31	847596	23.91	7.73225e-07
31	853776	24.01	7.62105e-07
31	859934	24.11	7.51129e-07
31	866092	24.21	7.40295e-07
31	872250	24.31	7.29602e-07
31	878408	24.41	7.19048e-07
31	884566	24.51	7.08632e-07
31	890724	24.61	6.98353e-07
31	896882	24.71	6.8821e-07
31	903040	24.81	6.78202e-07
31	909198	24.91	6.68326e-07
31	915378	25.01	6.58583e-07
31	921536	25.11	6.48969e-07
31	927694	25.21	6.39485e-07
31	933852	25.31	6.30128e-07
31	940010	25.41	6.20898e-07
31	946168	25.51	6.11793e-07
31	952326	25.61	6.02811e-07
31	958484	25.71	5.93952e-07
31	964642	25.81	5.85214e-07
31	970800	25.91	5.76596e-07
31	976980	26.01	5.68096e-07
31	983138	26.11	5.59714e-07
31	989296	26.21	5.51447e-07
31	995454	26.31	5.43294e-07
31	1001612	26.41	5.35255e-07
31	1007770	26.51	5.27327e-07
31	1013928	26.61	5.1951e-07
31	1020086	26.71	5.11802e-07
31	1026244	26.81	5.04202e-07
31	1032402	26.91	4.96709e-07
31	1038582	27.01	4.89321e-07
31	1044740	27.11	4.82038e-07
31	1050898	27.21	4.74856e-07
31	1057056	27.31	4.67777e-07
31	1063214	27.41	4.60798e-07
31	1069372	27.51	4.53918e-07
31	1075530	27.61	4.47136e-07
31	1081688	27.71	4.40451e-07
31	1087846	27.81	4.33861e-07
31	1094004	27.91	4.27364e-07
31	1100184	28.01	4.20962e-07
31	1106342	28.11	4.14651e-07
31	1112500	28.21	4.08431e-07
31	1118658	28.31	4.023e-07
31	1124816	28.41	3.96258e-07
31	1130974	28.51	3.90302e-07
31	1137132	28.61	3.84433e-07
31	1143290	28.71	3.78649e-07
31	1149448	28.81	3.72949e-07
31	1155606	28.91	3.67331e-07
31	1161786	29.01	3.61795e-07
31	1167944	29.11	3.56339e-07
31	1174102	29.21	3.50963e-07
31	1180260	29.31	3.45666e-07
31	1186418	29.41	3.40445e-07
31	1192576	29.51	3.35302e-07
31	1198734	29.61	3.30233e-07
31	1204892	29.71	3.25239e-07
30	633	1.11	0
30	1193	1.21	-0.00020453
30	1753	1.31	-0.000554877
30	2313	1.41	-0.000832247
30	2874	1.51	-0.00104351
30	3434	1.61	-0.00119586
30	3994	1.71	-0.00130032
30	4555	1.81	-0.00136297
30	5115	1.91	-0.00139051
30	5681	2.01	-0.00138854
30	6241	2.11	-0.00135929
30	6801	2.21	-0.00131236
30	7361	2.31	-0.00125193
30	7921	2.41	-0.0011787
30	8481	2.51	-0.00109691
30	9041	2.61	-0.00101022
30	9601	2.71	-0.000921739
30	10161	2.81	-0.000834034
30	10721	2.91	-0.000749208
30	11285	3.01	-0.000665159
30	11845	3.11	-0.000584221
30	12405	3.21	-0.000507502
30	12965	3.31	-0.000436504
30	13525	3.41	-0.00037161
30	14085	3.51	-0.00030993
30	14645	3.61	-0.000252384
30	15205	3.71	-0.000203358
30	15765	3.81	-0.000162163
30	16325	3.91	-0.000125022
30	16889	4.01	-9.21226e-05
30	17449	4.11	-6.35018e-05
30	18009	4.21	-3.90742e-05
30	18569	4.31	-1.8663e-05
30	19129	4.41	-2.02385e-06
30	19689	4.51	1.11347e-05
30	20249	4.61	2.11338e-05
30	20809	4.71	2.83102e-05
30	21369	4.81	3.30049e-05
30	21929	4.91	3.55541e-05
30	22493	5.01	3.62819e-05
30	23053	5.11	3.54954e-05
30	23613	5.21	3.72501e-05
30	24173	5.31	4.07487e-05
30	24733	5.41	4.22803e-05
30	25293	5.51	4.22404e-05
30	25853	5.61	4.09731e-05
30	26413	5.71	3.87753e-05
30	26973	5.81	3.59008e-05
30	27533	5.91	3.25641e-05
30	28097	6.01	2.8945e-05
30	28657	6.11	2.51916e-05
30	29217	6.21	2.1424e-05
30	29777	6.31	1.77381e-05
30	30337	6.41	1.42081e-05
30	30897	6.51	1.08896e-05
30	31457	6.61	7.82237e-06
30	32017	6.71	5.03258e-06
30	32577	6.81	2.53512e-06
30	33137	6.91	3.35502e-07
30	33701	7.01	-1.56836e-06
30	34261	7.11	-3.18462e-06
30	34821	7.21	-4.5261e-06
30	35381	7.31	-5.60915e-06
30	35941	7.41	-6.45258e-06
30	36501	7.51	-7.07682e-06
30	37061	7.61	-7.50319e-06
30	37621	7.71	-7.75328e-06
30	38181	7.81	-7.84844e-06
30	38741	7.91	-7.80945e-06
30	39305	8.01	-7.65614e-06
30	39865	8.11	-7.4072e-06
30	40425	8.21	-7.08001e-06
30	40985	8.31	-6.69054e-06
30	41545	8.41	-6.25326e-06
30	42105	8.51	-5.78119e-06
30	42665	8.61	-5.28583e-06
30	43225	8.71	-4.77726e-06
30	43785	8.81	-4.26418e-06
30	44345	8.91	-3.754e-06
30	44909	9.01	-3.25291e-06
30	45469	9.11	-2.76597e-06
30	46029	9.21	-2.29723e-06
30	46589	9.31	-1.84984e-06
30	47149	9.41	-1.42611e-06
30	47709	9.51	-1.02763e-06
30	48269	9.61	-6.55378e-07
30	48829	9.71	-3.09783e-07
30	49389	9.81	9.17701e-09
30	49949	9.91	3.01906e-07
30	50513	10.01	5.69116e-07
30	51073	10.11	8.11763e-07
30	51633	10.21	1.03099e-06
30	52193	10.31	1.22809e-06
30	52753	10.41	1.40443e-06
30	53313	10.51	1.56144e-06
30	53873	10.61	1.70059e-06
30	54433	10.71	1.82334e-06
30	54993	10.81	1.9311e-06
30	55553	10.91	2.02526e-06
30	56118	11.01	2.10715e-06
30	59092	11.11	2.17803e-06
30	65254	11.21	2.23908e-06
30	71414	11.31	2.2914e-06
30	77573	11.41	2.336e-06
30	83732	11.51	2.3738e-06
30	89890	11.61	2.40566e-06
30	96053	11.71	2.43233e-06
30	102213	11.81	2.4545e-06
30	108371	11.91	2.47277e-06
30	114552	12.01	2.48767e-06
30	120710	12.11	2.49967e-06
30	126868	12.21	2.50918e-06
30	133026	12.31	2.51654e-06
30	139184	12.41	2.52206e-06
30	145342	12.51	2.52598e-06
30	151500	12.61	2.52851e-06
30	157658	12.71	2.52983e-06
30	163816	12.81	2.53008e-06
30	169974	12.91	2.52938e-06
30	176154	13.01	2.52782e-06
30	182312	13.11	2.52548e-06
30	188470	13.21	2.5224e-06
30	194628	13.31	2.51863e-06
30	200786	13.41	2.5142e-06
30	206944	13.51	2.50913e-06
30	213102	13.61	2.50344e-06
30	219260	13.71	2.49714e-06
30	225418	13.81	2.49023e-06
30	231576	13.91	2.48272e-06
30	237756	14.01	2.47462e-06
30	243914	14.11	2.46592e-06
30	250072	14.21	2.45662e-06
30	256230	14.31	2.44674e-06
30	262388	14.41	2.43628e-06
30	268546	14.51	2.42523e-06
30	274704	14.61	2.41362e-06
30	280862	14.71	2.40145e-06
30	287020	14.81	2.38873e-06
30	293178	14.91	2.37547e-06
30	299358	15.01	2.3617e-06
30	305516	15.11	2.34742e-06
30	311674	15.21	2.33265e-06
30	317832	15.31	2.31742e-06
30	323990	15.41	2.30173e-06
30	330148	15.51	2.28563e-06
30	336306	15.61	2.26911e-06
30	342464	15.71	2.25221e-06
30	348622	15.81	2.23495e-06
30	354780	15.91	2.21735e-06
30	360960	16.01	2.19943e-06
30	367118	16.11	2.18122e-06
30	373276	16.21	2.16274e-06
30	379434	16.31	2.14401e-06
30	385592	16.41	2.12505e-06
30	391750	16.51	2.10588e-06
30	397908	16.61	2.08652e-06
30	404066	16.71	2.067e-06
30	410224	16.81	2.04733e-06
30	416382	16.91	2.02753e-06
30	422562	17.01	2.00762e-06
30	428720	17.11	1.98761e-06
30	434878	17.21	1.96753e-06
30	441036	17.31	1.94739e-06
30	447194	17.41	1.9272e-06
30	453352	17.51	1.90697e-06
30	459510	17.61	1.88673e-06
30	465668	17.71	1.86647e-06
30	471826	17.81	1.84623e-06
30	477984	17.91	1.826e-06
30	484164	18.01	1.8058e-06
30	490322	18.11	1.78563e-06
30	496480	18.21	1.76551e-06
30	502638	18.31	1.74545e-06
30	508796	18.41	1.72545e-06
30	514954	18.51	1.70552e-06
30	521112	18.61	1.68567e-06
30	527270	18.71	1.66591e-06
30	533428	18.81	1.64624e-06
30	539586	18.91	1.62667e-06
30	545766	19.01	1.6072e-06
30	551924	19.11	1.58784e-06
30	558082	19.21	1.56859e-06
30	564240	19.31	1.54947e-06
30	570398	19.41	1.53046e-06
30	576556	19.51	1.51159e-06
30	582714	19.61	1.49284e-06
30	588872	19.71	1.47423e-06
30	595030	19.81	1.45576e-06
30	601188	19.91	1.43742e-06
30	607368	20.01	1.41923e-06
30	613526	20.11	1.40119e-06
30	619684	20.21	1.38329e-06
30	625842	20.31	1.36554e-06
30	632000	20.41	1.34794e-06
30	638158	20.51	1.3305e-06
30	644316	20.61	1.31321e-06
30	650474	20.71	1.29608e-06
30	656632	20.81	1.2791e-06
30	662790	20.91	1.26229e-06
30	668970	21.01	1.24563e-06
30	675128	21.11	1.22914e-06
30	681286	21.21	1.2128e-06
30	687444	21.31	1.19663e-06
30	693602	21.41	1.18062e-06
30	699760	21.51	1.16478e-06
30	705918	21.61	1.14909e-06
30	712076	21.71	1.13357e-06
30	718234	21.81	1.11822e-06
30	724392	21.91	1.10302e-06
30	730572	22.01	1.088e-06
30	736730	22.11	1.07313e-06
30	742888	22.21	1.05843e-06
30	749046	22.31	1.04389e-06
30	755204	22.41	1.02951e-06
30	761362	22.51	1.0153e-06
30	767520	22.61	1.00125e-06
30	773678	22.71	9.87356e-07
30	779836	22.81	9.73625e-07
30	785994	22.91	9.60055e-07
30	792174	23.01	9.46644e-07
30	798332	23.11	9.33391e-07
30	804490	23.21	9.20296e-07
30	810648	23.31	9.07358e-07
30	816806	23.41	8.94575e-07
30	822964	23.51	8.81948e-07
30	829122	23.61	8.69476e-07
30	835280	23.71	8.57155e-07
30	841438	23.81	8.44987e-07
30	847596	23.91	8.3297e-07
30	853776	24.01	8.21104e-07
30	859934	24.11	8.09385e-07
30	866092	24.21	7.97816e-07
30	872250	24.31	7.86392e-07
30	878408	24.41	7.75114e-07
30	884566	24.51	7.63979e-07
[...]
488	385612	16.41	199.725
488	391770	16.51	202.502
488	397928	16.61	205.28
488	404086	16.71	208.058
488	410244	16.81	210.836
488	416402	16.91	213.613
488	422582	17.01	216.391
488	428740	17.11	219.169
488	434898	17.21	221.947
488	441056	17.31	224.725
488	447214	17.41	227.502
488	453372	17.51	230.28
488	459530	17.61	233.058
488	465688	17.71	235.836
488	471846	17.81	238.613
488	478004	17.91	241.391
488	484184	18.01	244.169
488	490342	18.11	246.947
488	496500	18.21	249.725
488	502658	18.31	252.502
488	508816	18.41	255.28
488	514974	18.51	258.058
488	521132	18.61	260.836
488	527290	18.71	263.613
488	533448	18.81	266.391
488	539606	18.91	269.169
488	545786	19.01	271.947
488	551944	19.11	274.725
488	558102	19.21	277.502
488	564260	19.31	280.28
488	570418	19.41	283.058
488	576576	19.51	285.836
488	582734	19.61	288.613
488	588892	19.71	291.391
488	595050	19.81	294.169
488	601208	19.91	296.947
488	607388	20.01	299.725
488	613546	20.11	302.502
488	619704	20.21	305.28
488	625862	20.31	308.058
488	632020	20.41	310.836
488	638178	20.51	313.614
488	644336	20.61	316.391
488	650494	20.71	319.169
488	656652	20.81	321.947
488	662810	20.91	324.725
488	668990	21.01	327.502
488	675148	21.11	330.28
488	681306	21.21	333.058
488	687464	21.31	335.836
488	693622	21.41	338.614
488	699780	21.51	341.391
488	705938	21.61	344.169
488	712096	21.71	346.947
488	718254	21.81	349.725
488	724412	21.91	352.502
488	730592	22.01	355.28
488	736750	22.11	358.058
488	742908	22.21	360.836
488	749066	22.31	363.614
488	755224	22.41	366.391
488	761382	22.51	369.169
488	767540	22.61	371.947
488	773698	22.71	374.725
488	779856	22.81	377.502
488	786014	22.91	380.28
488	792194	23.01	383.058
488	798352	23.11	385.836
488	804510	23.21	388.614
488	810668	23.31	391.391
488	816826	23.41	394.169
488	822984	23.51	396.947
488	829142	23.61	399.725
488	835300	23.71	402.502
488	841458	23.81	405.28
488	847616	23.91	408.058
488	853796	24.01	410.836
488	859954	24.11	413.614
488	866112	24.21	416.391
488	872270	24.31	419.169
488	878428	24.41	421.947
488	884586	24.51	424.725
488	890744	24.61	427.502
488	896902	24.71	430.28
488	903060	24.81	433.058
488	909218	24.91	435.836
488	915398	25.01	438.614
488	921556	25.11	441.391
488	927714	25.21	444.169
488	933872	25.31	446.947
488	940030	25.41	449.725
488	946188	25.51	452.503
488	952346	25.61	455.28
488	958504	25.71	458.058
488	964662	25.81	460.836
488	970820	25.91	463.614
488	977000	26.01	466.391
488	983158	26.11	469.169
488	989316	26.21	471.947
488	995474	26.31	474.725
488	1001632	26.41	477.503
488	1007790	26.51	480.28
488	1013948	26.61	483.058
488	1020106	26.71	485.836
488	1026264	26.81	488.614
488	1032422	26.91	491.391
488	1038602	27.01	494.169
488	1044760	27.11	496.947
488	1050918	27.21	499.725
488	1057076	27.31	502.503
488	1063234	27.41	505.28
488	1069392	27.51	508.058
488	1075550	27.61	510.836
488	1081708	27.71	513.614
488	1087866	27.81	516.391
488	1094024	27.91	519.169
488	1100204	28.01	521.947
488	1106362	28.11	524.725
488	1112520	28.21	527.503
488	1118678	28.31	530.28
488	1124836	28.41	533.058
488	1130994	28.51	535.836
488	1137152	28.61	538.614
488	1143310	28.71	541.391
488	1149468	28.81	544.169
488	1155626	28.91	546.947
488	1161806	29.01	549.725
488	1167964	29.11	552.503
488	1174122	29.21	555.28
488	1180280	29.31	558.058
488	1186438	29.41	560.836
488	1192596	29.51	563.614
488	1198754	29.61	566.391
488	1204912	29.71	569.169
487	59112	11.11	27.78
487	65274	11.21	27.7799
487	71434	11.31	27.7798
487	77593	11.41	27.7797
487	83752	11.51	27.7796
487	89910	11.61	27.7795
487	96073	11.71	27.7794
487	102233	11.81	27.7792
487	108391	11.91	27.7791
487	114572	12.01	27.7789
487	120730	12.11	27.7788
487	126888	12.21	27.7787
487	133046	12.31	27.7785
487	139204	12.41	27.7784
487	145362	12.51	27.7783
487	151520	12.61	27.7782
487	157678	12.71	27.7782
487	163836	12.81	27.7781
487	169994	12.91	27.778
487	176174	13.01	27.7779
487	182332	13.11	27.7779
487	188490	13.21	27.7779
487	194648	13.31	27.7778
487	200806	13.41	27.7778
487	206964	13.51	27.7778
487	213122	13.61	27.7777
487	219280	13.71	27.7777
487	225438	13.81	27.7777
487	231596	13.91	27.7777
487	237776	14.01	27.7777
487	243934	14.11	27.7777
487	250092	14.21	27.7777
487	256250	14.31	27.7777
487	262408	14.41	27.7777
487	268566	14.51	27.7777
487	274724	14.61	27.7777
487	280882	14.71	27.7777
487	287040	14.81	27.7777
487	293198	14.91	27.7777
487	299378	15.01	27.7777
487	305536	15.11	27.7777
487	311694	15.21	27.7778
487	317852	15.31	27.7778
487	324010	15.41	27.7778
487	330168	15.51	27.7778
487	336326	15.61	27.7778
487	342484	15.71	27.7778
487	348642	15.81	27.7778
487	354800	15.91	27.7778
487	360980	16.01	27.7778
487	367138	16.11	27.7778
487	373296	16.21	27.7778
487	379454	16.31	27.7778
487	385612	16.41	27.7778
487	391770	16.51	27.7778
487	397928	16.61	27.7778
487	404086	16.71	27.7778
487	410244	16.81	27.7778
487	416402	16.91	27.7778
487	422582	17.01	27.7778
487	428740	17.11	27.7778
487	434898	17.21	27.7778
487	441056	17.31	27.7778
487	447214	17.41	27.7778
487	453372	17.51	27.7778
487	459530	17.61	27.7778
487	465688	17.71	27.7778
487	471846	17.81	27.7778
487	478004	17.91	27.7778
487	484184	18.01	27.7778
487	490342	18.11	27.7778
487	496500	18.21	27.7778
487	502658	18.31	27.7778
487	508816	18.41	27.7778
487	514974	18.51	27.7778
487	521132	18.61	27.7778
487	527290	18.71	27.7778
487	533448	18.81	27.7778
487	539606	18.91	27.7778
487	545786	19.01	27.7778
487	551944	19.11	27.7778
487	558102	19.21	27.7778
487	564260	19.31	27.7778
487	570418	19.41	27.7778
487	576576	19.51	27.7778
487	582734	19.61	27.7778
487	588892	19.71	27.7778
487	595050	19.81	27.7778
487	601208	19.91	27.7778
487	607388	20.01	27.7778
487	613546	20.11	27.7778
487	619704	20.21	27.7778
487	625862	20.31	27.7778
487	632020	20.41	27.7778
487	638178	20.51	27.7778
487	644336	20.61	27.7778
487	650494	20.71	27.7778
487	656652	20.81	27.7778
487	662810	20.91	27.7778
487	668990	21.01	27.7778
487	675148	21.11	27.7778
487	681306	21.21	27.7778
487	687464	21.31	27.7778
487	693622	21.41	27.7778
487	699780	21.51	27.7778
487	705938	21.61	27.7778
487	712096	21.71	27.7778
487	718254	21.81	27.7778
487	724412	21.91	27.7778
487	730592	22.01	27.7778
487	736750	22.11	27.7778
487	742908	22.21	27.7778
487	749066	22.31	27.7778
487	755224	22.41	27.7778
487	761382	22.51	27.7778
487	767540	22.61	27.7778
487	773698	22.71	27.7778
487	779856	22.81	27.7778
487	786014	22.91	27.7778
487	792194	23.01	27.7778
487	798352	23.11	27.7778
487	804510	23.21	27.7778
487	810668	23.31	27.7778
487	816826	23.41	27.7778
487	822984	23.51	27.7778
487	829142	23.61	27.7778
487	835300	23.71	27.7778
487	841458	23.81	27.7778
487	847616	23.91	27.7778
487	853796	24.01	27.7778
487	859954	24.11	27.7778
487	866112	24.21	27.7778
487	872270	24.31	27.7778
487	878428	24.41	27.7778
487	884586	24.51	27.7778
487	890744	24.61	27.7778
487	896902	24.71	27.7778
487	903060	24.81	27.7778
487	909218	24.91	27.7778
487	915398	25.01	27.7778
487	921556	25.11	27.7778
487	927714	25.21	27.7778
487	933872	25.31	27.7778
487	940030	25.41	27.7778
487	946188	25.51	27.7778
487	952346	25.61	27.7778
487	958504	25.71	27.7778
487	964662	25.81	27.7778
487	970820	25.91	27.7778
487	977000	26.01	27.7778
487	983158	26.11	27.7778
487	989316	26.21	27.7778
487	995474	26.31	27.7778
487	1001632	26.41	27.7778
487	1007790	26.51	27.7778
487	1013948	26.61	27.7778
487	1020106	26.71	27.7778
487	1026264	26.81	27.7778
487	1032422	26.91	27.7778
487	1038602	27.01	27.7778
487	1044760	27.11	27.7778
487	1050918	27.21	27.7778
487	1057076	27.31	27.7778
487	1063234	27.41	27.7778
487	1069392	27.51	27.7778
487	1075550	27.61	27.7778
487	1081708	27.71	27.7778
487	1087866	27.81	27.7778
487	1094024	27.91	27.7778
487	1100204	28.01	27.7778
487	1106362	28.11	27.7778
487	1112520	28.21	27.7778
487	1118678	28.31	27.7778
487	1124836	28.41	27.7778
487	1130994	28.51	27.7778
487	1137152	28.61	27.7778
487	1143310	28.71	27.7778
487	1149468	28.81	27.7778
487	1155626	28.91	27.7778
487	1161806	29.01	27.7778
487	1167964	29.11	27.7778
487	1174122	29.21	27.7778
487	1180280	29.31	27.7778
487	1186438	29.41	27.7778
487	1192596	29.51	27.7778
487	1198754	29.61	27.7778
487	1204912	29.71	27.7778
485	59112	11.11	0
485	65274	11.21	0
485	71434	11.31	0
485	77593	11.41	0
485	83752	11.51	0
485	89910	11.61	0
485	96073	11.71	0
485	102233	11.81	0
485	108391	11.91	0
485	114572	12.01	0
485	120730	12.11	0
485	126888	12.21	0
485	133046	12.31	0
485	139204	12.41	0
485	145362	12.51	0
485	151520	12.61	0
485	157678	12.71	0
485	163836	12.81	0
485	169994	12.91	0
485	176174	13.01	0
485	182332	13.11	0
485	188490	13.21	0
485	194648	13.31	0
485	200806	13.41	0
485	206964	13.51	0
485	213122	13.61	0
485	219280	13.71	0
485	225438	13.81	0
485	231596	13.91	0
485	237776	14.01	0
485	243934	14.11	0
485	250092	14.21	0
485	256250	14.31	0
485	262408	14.41	0
485	268566	14.51	0
485	274724	14.61	0
485	280882	14.71	0
485	287040	14.81	0
485	293198	14.91	0
485	299378	15.01	0
485	305536	15.11	0
485	311694	15.21	0
485	317852	15.31	0
485	324010	15.41	0
485	330168	15.51	0
485	336326	15.61	0
485	342484	15.71	0
485	348642	15.81	0
485	354800	15.91	0
485	360980	16.01	0
485	367138	16.11	0
485	373296	16.21	0
485	379454	16.31	0
485	385612	16.41	0
485	391770	16.51	0
485	397928	16.61	0
485	404086	16.71	0
485	410244	16.81	0
485	416402	16.91	0
485	422582	17.01	0
485	428740	17.11	0
485	434898	17.21	0
485	441056	17.31	0
485	447214	17.41	0
485	453372	17.51	0
485	459530	17.61	0
485	465688	17.71	0
485	471846	17.81	0
485	478004	17.91	0
485	484184	18.01	0
485	490342	18.11	0
485	496500	18.21	0
485	502658	18.31	0
485	508816	18.41	0
485	514974	18.51	0
485	521132	18.61	0
485	527290	18.71	0
485	533448	18.81	0
485	539606	18.91	0
485	545786	19.01	0
485	551944	19.11	0
485	558102	19.21	0
485	564260	19.31	0
485	570418	19.41	0
485	576576	19.51	0
485	582734	19.61	0
485	588892	19.71	0
485	595050	19.81	0
485	601208	19.91	0
485	607388	20.01	0
485	613546	20.11	0
485	619704	20.21	0
485	625862	20.31	0
485	632020	20.41	0
485	638178	20.51	0
485	644336	20.61	0
485	650494	20.71	0
485	656652	20.81	0
485	662810	20.91	0
485	668990	21.01	0
485	675148	21.11	0
485	681306	21.21	0
485	687464	21.31	0
485	693622	21.41	0
485	699780	21.51	0
485	705938	21.61	0
485	712096	21.71	0
485	718254	21.81	0
485	724412	21.91	0
485	730592	22.01	0
485	736750	22.11	0
485	742908	22.21	0
485	749066	22.31	0
485	755224	22.41	0
485	761382	22.51	0
485	767540	22.61	0
485	773698	22.71	0
485	779856	22.81	0
485	786014	22.91	0
485	792194	23.01	0
485	798352	23.11	0
485	804510	23.21	0
485	810668	23.31	0
485	816826	23.41	0
485	822984	23.51	0
485	829142	23.61	0
485	835300	23.71	0
485	841458	23.81	0
485	847616	23.91	0
485	853796	24.01	0
485	859954	24.11	0
485	866112	24.21	0
485	872270	24.31	0
485	878428	24.41	0
485	884586	24.51	0
485	890744	24.61	0
485	896902	24.71	0
485	903060	24.81	0
485	909218	24.91	0
485	915398	25.01	0
485	921556	25.11	0
485	927714	25.21	0
485	933872	25.31	0
485	940030	25.41	0
485	946188	25.51	0
485	952346	25.61	0
485	958504	25.71	0
485	964662	25.81	0
485	970820	25.91	0
485	977000	26.01	0
485	983158	26.11	0
485	989316	26.21	0
485	995474	26.31	0
485	1001632	26.41	0
485	1007790	26.51	0
485	1013948	26.61	0
485	1020106	26.71	0
485	1026264	26.81	0
485	1032422	26.91	0
485	1038602	27.01	0
485	1044760	27.11	0
485	1050918	27.21	0
485	1057076	27.31	0
485	1063234	27.41	0
485	1069392	27.51	0
485	1075550	27.61	0
485	1081708	27.71	0
485	1087866	27.81	0
485	1094024	27.91	0
485	1100204	28.01	0
485	1106362	28.11	0
485	1112520	28.21	0
485	1118678	28.31	0
485	1124836	28.41	0
485	1130994	28.51	0
485	1137152	28.61	0
485	1143310	28.71	0
485	1149468	28.81	0
485	1155626	28.91	0
485	1161806	29.01	0
485	1167964	29.11	0
485	1174122	29.21	0
485	1180280	29.31	0
485	1186438	29.41	0
485	1192596	29.51	0
485	1198754	29.61	0
485	1204912	29.71	0
484	59112	11.11	41
484	65274	11.21	41
484	71434	11.31	41
484	77593	11.41	41
484	83752	11.51	41
484	89910	11.61	41
484	96073	11.71	41
484	102233	11.81	41
484	108391	11.91	41
484	114572	12.01	41
484	120730	12.11	41
484	126888	12.21	41
484	133046	12.31	41
484	139204	12.41	41
484	145362	12.51	41
484	151520	12.61	41
484	157678	12.71	41
484	163836	12.81	41
484	169994	12.91	41
484	176174	13.01	41
484	182332	13.11	41
484	188490	13.21	41
484	194648	13.31	41
484	200806	13.41	41
484	206964	13.51	41
484	213122	13.61	41
484	219280	13.71	41
484	225438	13.81	41
484	231596	13.91	41
484	237776	14.01	41
484	243934	14.11	41
484	250092	14.21	41
484	256250	14.31	41
484	262408	14.41	41
484	268566	14.51	41
484	274724	14.61	41
484	280882	14.71	41
484	287040	14.81	41
484	293198	14.91	41
484	299378	15.01	41
484	305536	15.11	41
484	311694	15.21	41
484	317852	15.31	41
484	324010	15.41	41
484	330168	15.51	41
484	336326	15.61	41
484	342484	15.71	41
484	348642	15.81	41
484	354800	15.91	41
484	360980	16.01	41
484	367138	16.11	41
484	373296	16.21	41
484	379454	16.31	41
484	385612	16.41	41
484	391770	16.51	41
484	397928	16.61	41
484	404086	16.71	41
484	410244	16.81	41
484	416402	16.91	41
484	422582	17.01	41
484	428740	17.11	41
484	434898	17.21	41
484	441056	17.31	41
484	447214	17.41	41
484	453372	17.51	41
484	459530	17.61	41
484	465688	17.71	41
484	471846	17.81	41
484	478004	17.91	41
484	484184	18.01	41
484	490342	18.11	41
484	496500	18.21	41
484	502658	18.31	41
484	508816	18.41	41
484	514974	18.51	41
484	521132	18.61	41
484	527290	18.71	41
484	533448	18.81	41
484	539606	18.91	41
484	545786	19.01	41
484	551944	19.11	41
484	558102	19.21	41
484	564260	19.31	41
484	570418	19.41	41
484	576576	19.51	41
484	582734	19.61	41
484	588892	19.71	41
484	595050	19.81	41
484	601208	19.91	41
484	607388	20.01	41
484	613546	20.11	41
484	619704	20.21	41
484	625862	20.31	41
484	632020	20.41	41
484	638178	20.51	41
484	644336	20.61	41
484	650494	20.71	41
484	656652	20.81	41
484	662810	20.91	41
484	668990	21.01	41
484	675148	21.11	41
484	681306	21.21	41
484	687464	21.31	41
484	693622	21.41	41
484	699780	21.51	41
484	705938	21.61	41
484	712096	21.71	41
484	718254	21.81	41
484	724412	21.91	41
484	730592	22.01	41
484	736750	22.11	41
484	742908	22.21	41
484	749066	22.31	41
484	755224	22.41	41
484	761382	22.51	41
484	767540	22.61	41
484	773698	22.71	41
484	779856	22.81	41
484	786014	22.91	41
484	792194	23.01	41
484	798352	23.11	41
484	804510	23.21	41
484	810668	23.31	41
484	816826	23.41	41
484	822984	23.51	41
484	829142	23.61	41
484	835300	23.71	41
484	841458	23.81	41
484	847616	23.91	41
484	853796	24.01	41
484	859954	24.11	41
484	866112	24.21	41
484	872270	24.31	41
484	878428	24.41	41
484	884586	24.51	41
484	890744	24.61	41
484	896902	24.71	41
484	903060	24.81	41
484	909218	24.91	41
484	915398	25.01	41
484	921556	25.11	41
484	927714	25.21	41
484	933872	25.31	41
484	940030	25.41	41
484	946188	25.51	41
484	952346	25.61	41
484	958504	25.71	41
484	964662	25.81	41
484	970820	25.91	41
484	977000	26.01	41
484	983158	26.11	41
484	989316	26.21	41
484	995474	26.31	41
484	1001632	26.41	41
484	1007790	26.51	41
484	1013948	26.61	41
484	1020106	26.71	41
484	1026264	26.81	41
484	1032422	26.91	41
484	1038602	27.01	41
484	1044760	27.11	41
484	1050918	27.21	41
484	1057076	27.31	41
484	1063234	27.41	41
484	1069392	27.51	41
484	1075550	27.61	41
484	1081708	27.71	41
484	1087866	27.81	41
484	1094024	27.91	41
484	1100204	28.01	41
484	1106362	28.11	41
484	1112520	28.21	41
484	1118678	28.31	41
484	1124836	28.41	41
484	1130994	28.51	41
484	1137152	28.61	41
484	1143310	28.71	41
484	1149468	28.81	41
484	1155626	28.91	41
484	1161806	29.01	41
484	1167964	29.11	41
484	1174122	29.21	41
484	1180280	29.31	41
484	1186438	29.41	41
484	1192596	29.51	41
484	1198754	29.61	41
484	1204912	29.71	41
486	59112	11.11	9
486	65274	11.21	9
486	71434	11.31	9
486	77593	11.41	9
486	83752	11.51	9
486	89910	11.61	9
486	96073	11.71	9
486	102233	11.81	9
486	108391	11.91	9
486	114572	12.01	9
486	120730	12.11	9
486	126888	12.21	9
486	133046	12.31	9
486	139204	12.41	9
486	145362	12.51	9
486	151520	12.61	9
486	157678	12.71	9
486	163836	12.81	9
486	169994	12.91	9
486	176174	13.01	9
486	182332	13.11	9
486	188490	13.21	9
486	194648	13.31	9
486	200806	13.41	9
486	206964	13.51	9
486	213122	13.61	9
486	219280	13.71	9
486	225438	13.81	9
486	231596	13.91	9
486	237776	14.01	9
486	243934	14.11	9
486	250092	14.21	9
486	256250	14.31	9
486	262408	14.41	9
486	268566	14.51	9
486	274724	14.61	9
486	280882	14.71	9
486	287040	14.81	9
486	293198	14.91	9
486	299378	15.01	9
486	305536	15.11	9
486	311694	15.21	9
486	317852	15.31	9
486	324010	15.41	9
486	330168	15.51	9
486	336326	15.61	9
486	342484	15.71	9
486	348642	15.81	9
486	354800	15.91	9
486	360980	16.01	9
486	367138	16.11	9
486	373296	16.21	9
486	379454	16.31	9
486	385612	16.41	9
486	391770	16.51	9
486	397928	16.61	9
486	404086	16.71	9
486	410244	16.81	9
486	416402	16.91	9
486	422582	17.01	9
486	428740	17.11	9
486	434898	17.21	9
486	441056	17.31	9
486	447214	17.41	9
486	453372	17.51	9
486	459530	17.61	9
486	465688	17.71	9
486	471846	17.81	9
486	478004	17.91	9
486	484184	18.01	9
486	490342	18.11	9
486	496500	18.21	9
486	502658	18.31	9
486	508816	18.41	9
486	514974	18.51	9
486	521132	18.61	9
486	527290	18.71	9
486	533448	18.81	9
486	539606	18.91	9
486	545786	19.01	9
486	551944	19.11	9
486	558102	19.21	9
486	564260	19.31	9
486	570418	19.41	9
486	576576	19.51	9
486	582734	19.61	9
486	588892	19.71	9
486	595050	19.81	9
486	601208	19.91	9
486	607388	20.01	9
486	613546	20.11	9
486	619704	20.21	9
486	625862	20.31	9
486	632020	20.41	9
486	638178	20.51	9
486	644336	20.61	9
486	650494	20.71	9
486	656652	20.81	9
486	662810	20.91	9
486	668990	21.01	9
486	675148	21.11	9
486	681306	21.21	9
486	687464	21.31	9
486	693622	21.41	9
486	699780	21.51	9
486	705938	21.61	9
486	712096	21.71	9
486	718254	21.81	9
486	724412	21.91	9
486	730592	22.01	9
486	736750	22.11	9
486	742908	22.21	9
486	749066	22.31	9
486	755224	22.41	9
486	761382	22.51	9
486	767540	22.61	9
486	773698	22.71	9
486	779856	22.81	9
486	786014	22.91	9
486	792194	23.01	9
486	798352	23.11	9
486	804510	23.21	9
486	810668	23.31	9
486	816826	23.41	9
486	822984	23.51	9
486	829142	23.61	9
486	835300	23.71	9
486	841458	23.81	9
486	847616	23.91	9
486	853796	24.01	9
486	859954	24.11	9
486	866112	24.21	9
486	872270	24.31	9
486	878428	24.41	9
486	884586	24.51	9
486	890744	24.61	9
486	896902	24.71	9
486	903060	24.81	9
486	909218	24.91	9
486	915398	25.01	9
486	921556	25.11	9
486	927714	25.21	9
486	933872	25.31	9
486	940030	25.41	9
486	946188	25.51	9
486	952346	25.61	9
486	958504	25.71	9
486	964662	25.81	9
486	970820	25.91	9
486	977000	26.01	9
486	983158	26.11	9
486	989316	26.21	9
486	995474	26.31	9
486	1001632	26.41	9
486	1007790	26.51	9
486	1013948	26.61	9
486	1020106	26.71	9
486	1026264	26.81	9
486	1032422	26.91	9
486	1038602	27.01	9
486	1044760	27.11	9
486	1050918	27.21	9
486	1057076	27.31	9
486	1063234	27.41	9
486	1069392	27.51	9
486	1075550	27.61	9
486	1081708	27.71	9
486	1087866	27.81	9
486	1094024	27.91	9
486	1100204	28.01	9
486	1106362	28.11	9
486	1112520	28.21	9
486	1118678	28.31	9
486	1124836	28.41	9
486	1130994	28.51	9
486	1137152	28.61	9
486	1143310	28.71	9
486	1149468	28.81	9
486	1155626	28.91	9
486	1161806	29.01	9
486	1167964	29.11	9
486	1174122	29.21	9
486	1180280	29.31	9
486	1186438	29.41	9
486	1192596	29.51	9
486	1198754	29.61	9
486	1204912	29.71	9
494	113972	12	0
494	175574	13	0
494	237176	14	0
494	298778	15	0
494	360380	16	0
494	421982	17	0
494	483584	18	0
494	545186	19	0
494	606788	20	0
494	668390	21	0
494	729992	22	0
494	791594	23	0
494	853196	24	0
494	914798	25	0
494	976400	26	0
494	1038002	27	0
494	1099604	28	0
494	1161206	29	0
493	113972	12	0.099209
493	175574	13	0.10913
493	237176	14	0.10913
493	298778	15	0.10913
493	360380	16	0.10913
493	421982	17	0.10913
493	483584	18	0.10913
493	545186	19	0.10913
493	606788	20	0.10913
493	668390	21	0.10913
493	729992	22	0.10913
493	791594	23	0.10913
493	853196	24	0.10913
493	914798	25	0.10913
493	976400	26	0.10913
493	1038002	27	0.10913
493	1099604	28	0.10913
493	1161206	29	0.10913
492	113972	12	9
492	175574	13	9
492	237176	14	9
492	298778	15	9
492	360380	16	9
492	421982	17	9
492	483584	18	9
492	545186	19	9
492	606788	20	9
492	668390	21	9
492	729992	22	9
492	791594	23	9
492	853196	24	9
492	914798	25	9
492	976400	26	9
492	1038002	27	9
492	1099604	28	9
492	1161206	29	9
