version 2
run Braking-0-20181231-22:25:46-4876
attr beaconInterval 0.1
attr configname Braking
attr controller 0
attr datetime 20181231-22:25:46
attr experiment Braking
attr headway 0.3
attr humanCars 5
attr humanLanes 3
attr inifile omnetpp.ini
attr iterationvars "$nCars=12, $platoonSize=4, $nLanes=3, $humanCars=5, $humanLanes=3, $ploegH=0.5, $controller=0, $sController=\"ACC\", $headway=0.3, $leaderHeadway=1.2, $leaderSpeed=100, $beaconInterval=0.1, $priority=4, $packetSize=200, $0=2, $1=0.3"
attr iterationvarsf nCars=12,platoonSize=4,nLanes=3,humanCars=5,humanLanes=3,ploegH=0.5,controller=0,sController=ACC,headway=0.3,leaderHeadway=1.2,leaderSpeed=100,beaconInterval=0.1,priority=4,packetSize=200,2,0.3-
attr leaderHeadway 1.2
attr leaderSpeed 100
attr measurement "$nCars=12, $platoonSize=4, $nLanes=3, $humanCars=5, $humanLanes=3, $ploegH=0.5, $controller=0, $sController=\"ACC\", $headway=0.3, $leaderHeadway=1.2, $leaderSpeed=100, $beaconInterval=0.1, $priority=4, $packetSize=200, $0=2, $1=0.3"
attr nCars 12
attr nLanes 3
attr network Highway
attr packetSize 200
attr platoonSize 4
attr ploegH 0.5
attr priority 4
attr processid 4876
attr repetition 0
attr replication #0
attr resultdir results
attr runnumber 0
attr sController "\"ACC\""
attr seedset 0
param **.coreDebug false
param **.debug false
param **.headway 0.3s
param **.numberOfCars 12
param **.numberOfCarsPerPlatoon 4
param **.numberOfHumanCars 5
param **.numberOfHumanLanes 3
param **.numberOfLanes 3
param **.numericController 0
param **.seed 0
param **.traffic.humanCars 5
param **.traffic.humanLanes 3
param **.traffic.humanVType "\"vtypehuman\""
param **.traffic.nCars 12
param **.traffic.nLanes 3
param **.traffic.platoonInsertDistance 2m
param **.traffic.platoonInsertHeadway 0.3s
param **.traffic.platoonInsertSpeed 100kmph
param **.traffic.platoonInsertTime "1 s"
param **.traffic.platoonLeaderHeadway 1.2s
param **.traffic.platoonSize 4
param **.traffic.platooningVType "\"vtypeauto\""
param **.traffic_type "\"PlatoonsPlusHumanTraffic\""
param *.**.nic.mac1609_4.bitrate 6Mbps
param *.**.nic.mac1609_4.txPower 100mW
param *.**.nic.mac1609_4.useServiceChannel false
param *.**.nic.phy80211p.analogueModels "xmldoc(\"config.xml\")"
param *.**.nic.phy80211p.decider "xmldoc(\"config.xml\")"
param *.**.nic.phy80211p.maxTXPower 100mW
param *.**.nic.phy80211p.sensitivity -94dBm
param *.**.nic.phy80211p.thermalNoise -95dBm
param *.**.nic.phy80211p.usePropagationDelay true
param *.**.nic.phy80211p.useThermalNoise true
param *.annotations.draw false
param *.connectionManager.drawMaxIntfDist false
param *.connectionManager.maxInterfDist 2600m
param *.connectionManager.sendDirect true
param *.human[*].mobility.x 0
param *.human[*].mobility.y 0
param *.human[*].mobility.z 1.895
param *.human[*].prot.beaconingInterval "0.1 s"
param *.human[*].prot.bitrate "3 Mbps"
param *.human[*].prot.packetSize 200
param *.human[*].prot.priority 4
param *.human[*].prot.txPower "100 mW"
param *.manager.autoShutdown true
param *.manager.configFile "\"./sumocfg/freeway.sumo.cfg\""
param *.manager.host "\"localhost\""
param *.manager.margin 25
param *.manager.moduleDisplayString "\"\""
param *.manager.moduleName "\"vtypeauto=node vtypehuman=human\""
param *.manager.moduleType "\"vtypeauto=org.car2x.veins.modules.application.platooning.PlatoonCar vtypehuman=HumanCar\""
param *.manager.updateInterval 0.01s
param *.manager.useGui true
param *.node[*].appl_type "\"SimplePlatooningApp\""
param *.node[*].helper.nCars 12
param *.node[*].helper.nLanes 3
param *.node[*].helper.platoonSize 4
param *.node[*].helper_type "\"PositionHelper\""
param *.node[*].mobility.x 0
param *.node[*].mobility.y 0
param *.node[*].mobility.z 1.895
param *.node[*].prot.beaconingInterval 0.1s
param *.node[*].prot.packetSize 200
param *.node[*].prot.priority 4
param *.node[*].prot.useControllerAcceleration true
param *.node[*].protocol_type "\"SimplePlatooningBeaconing\""
param *.node[*].scenario.accHeadway 0.3s
param *.node[*].scenario.brakingDeceleration "8 mpsps"
param *.node[*].scenario.caccC1 0.5
param *.node[*].scenario.caccOmegaN "0.2 Hz"
param *.node[*].scenario.caccXi 1
param *.node[*].scenario.controller "\"ACC\""
param *.node[*].scenario.engineTau "0.5 s"
param *.node[*].scenario.leaderHeadway 1.2s
param *.node[*].scenario.leaderOscillationFrequency "0.2 Hz"
param *.node[*].scenario.leaderSpeed 100kmph
param *.node[*].scenario.ploegH 0.5s
param *.node[*].scenario.ploegKd 0.7
param *.node[*].scenario.ploegKp 0.2
param *.node[*].scenario.startBraking "5 s"
param *.node[*].scenario.useRealisticEngine false
param *.node[*].scenario.vehicleFile "\"./sumocfg/vehicles.xml\""
param *.node[*].scenario_type "\"BrakingScenario\""
param *.node[*].unicast.packetLossRate 0
param *.obstacles.debug false
param *.playgroundSizeX 65000m
param *.playgroundSizeY 25000m
param *.playgroundSizeZ 50m
param *.world.use2D false
param *.world.useTorus false

vector 1  Highway.node[0].appl  distance  ETV
vector 2  Highway.node[0].appl  relativeSpeed  ETV
vector 3  Highway.node[0].appl  nodeId  ETV
vector 7  Highway.node[0].appl  acceleration  ETV
vector 8  Highway.node[0].appl  controllerAcceleration  ETV
vector 4  Highway.node[0].appl  speed  ETV
vector 5  Highway.node[0].appl  posx  ETV
vector 6  Highway.node[0].appl  posy  ETV
vector 24  Highway.node[1].appl  distance  ETV
vector 25  Highway.node[1].appl  relativeSpeed  ETV
vector 26  Highway.node[1].appl  nodeId  ETV
vector 30  Highway.node[1].appl  acceleration  ETV
vector 31  Highway.node[1].appl  controllerAcceleration  ETV
vector 27  Highway.node[1].appl  speed  ETV
vector 28  Highway.node[1].appl  posx  ETV
vector 29  Highway.node[1].appl  posy  ETV
vector 47  Highway.node[2].appl  distance  ETV
vector 48  Highway.node[2].appl  relativeSpeed  ETV
vector 49  Highway.node[2].appl  nodeId  ETV
vector 53  Highway.node[2].appl  acceleration  ETV
vector 54  Highway.node[2].appl  controllerAcceleration  ETV
vector 50  Highway.node[2].appl  speed  ETV
vector 51  Highway.node[2].appl  posx  ETV
vector 52  Highway.node[2].appl  posy  ETV
vector 70  Highway.node[3].appl  distance  ETV
vector 71  Highway.node[3].appl  relativeSpeed  ETV
vector 72  Highway.node[3].appl  nodeId  ETV
vector 76  Highway.node[3].appl  acceleration  ETV
vector 77  Highway.node[3].appl  controllerAcceleration  ETV
vector 73  Highway.node[3].appl  speed  ETV
vector 74  Highway.node[3].appl  posx  ETV
vector 75  Highway.node[3].appl  posy  ETV
vector 93  Highway.node[4].appl  distance  ETV
vector 94  Highway.node[4].appl  relativeSpeed  ETV
vector 95  Highway.node[4].appl  nodeId  ETV
vector 99  Highway.node[4].appl  acceleration  ETV
vector 100  Highway.node[4].appl  controllerAcceleration  ETV
vector 96  Highway.node[4].appl  speed  ETV
vector 97  Highway.node[4].appl  posx  ETV
vector 98  Highway.node[4].appl  posy  ETV
vector 116  Highway.node[5].appl  distance  ETV
vector 117  Highway.node[5].appl  relativeSpeed  ETV
vector 118  Highway.node[5].appl  nodeId  ETV
vector 122  Highway.node[5].appl  acceleration  ETV
vector 123  Highway.node[5].appl  controllerAcceleration  ETV
vector 119  Highway.node[5].appl  speed  ETV
vector 120  Highway.node[5].appl  posx  ETV
vector 121  Highway.node[5].appl  posy  ETV
vector 139  Highway.node[6].appl  distance  ETV
vector 140  Highway.node[6].appl  relativeSpeed  ETV
vector 141  Highway.node[6].appl  nodeId  ETV
vector 145  Highway.node[6].appl  acceleration  ETV
vector 146  Highway.node[6].appl  controllerAcceleration  ETV
vector 142  Highway.node[6].appl  speed  ETV
vector 143  Highway.node[6].appl  posx  ETV
vector 144  Highway.node[6].appl  posy  ETV
vector 162  Highway.node[7].appl  distance  ETV
vector 163  Highway.node[7].appl  relativeSpeed  ETV
vector 164  Highway.node[7].appl  nodeId  ETV
vector 168  Highway.node[7].appl  acceleration  ETV
vector 169  Highway.node[7].appl  controllerAcceleration  ETV
vector 165  Highway.node[7].appl  speed  ETV
vector 166  Highway.node[7].appl  posx  ETV
vector 167  Highway.node[7].appl  posy  ETV
vector 185  Highway.node[8].appl  distance  ETV
vector 186  Highway.node[8].appl  relativeSpeed  ETV
vector 187  Highway.node[8].appl  nodeId  ETV
vector 191  Highway.node[8].appl  acceleration  ETV
vector 192  Highway.node[8].appl  controllerAcceleration  ETV
vector 188  Highway.node[8].appl  speed  ETV
vector 189  Highway.node[8].appl  posx  ETV
vector 190  Highway.node[8].appl  posy  ETV
vector 208  Highway.node[9].appl  distance  ETV
vector 209  Highway.node[9].appl  relativeSpeed  ETV
vector 210  Highway.node[9].appl  nodeId  ETV
vector 214  Highway.node[9].appl  acceleration  ETV
vector 215  Highway.node[9].appl  controllerAcceleration  ETV
vector 211  Highway.node[9].appl  speed  ETV
vector 212  Highway.node[9].appl  posx  ETV
vector 213  Highway.node[9].appl  posy  ETV
vector 231  Highway.node[10].appl  distance  ETV
vector 232  Highway.node[10].appl  relativeSpeed  ETV
vector 233  Highway.node[10].appl  nodeId  ETV
vector 237  Highway.node[10].appl  acceleration  ETV
vector 238  Highway.node[10].appl  controllerAcceleration  ETV
vector 234  Highway.node[10].appl  speed  ETV
vector 235  Highway.node[10].appl  posx  ETV
vector 236  Highway.node[10].appl  posy  ETV
vector 254  Highway.node[11].appl  distance  ETV
vector 255  Highway.node[11].appl  relativeSpeed  ETV
vector 256  Highway.node[11].appl  nodeId  ETV
vector 260  Highway.node[11].appl  acceleration  ETV
vector 261  Highway.node[11].appl  controllerAcceleration  ETV
vector 257  Highway.node[11].appl  speed  ETV
vector 258  Highway.node[11].appl  posx  ETV
vector 259  Highway.node[11].appl  posy  ETV
vector 152  Highway.node[6].prot  leaderDelay  ETV
vector 150  Highway.node[6].prot  leaderDelayId  ETV
vector 153  Highway.node[6].prot  frontDelay  ETV
vector 151  Highway.node[6].prot  frontDelayId  ETV
vector 221  Highway.node[9].prot  leaderDelay  ETV
vector 219  Highway.node[9].prot  leaderDelayId  ETV
vector 60  Highway.node[2].prot  leaderDelay  ETV
vector 58  Highway.node[2].prot  leaderDelayId  ETV
vector 61  Highway.node[2].prot  frontDelay  ETV
vector 59  Highway.node[2].prot  frontDelayId  ETV
vector 84  Highway.node[3].prot  frontDelay  ETV
vector 82  Highway.node[3].prot  frontDelayId  ETV
vector 268  Highway.node[11].prot  frontDelay  ETV
vector 266  Highway.node[11].prot  frontDelayId  ETV
vector 222  Highway.node[9].prot  frontDelay  ETV
vector 220  Highway.node[9].prot  frontDelayId  ETV
vector 129  Highway.node[5].prot  leaderDelay  ETV
vector 127  Highway.node[5].prot  leaderDelayId  ETV
vector 130  Highway.node[5].prot  frontDelay  ETV
vector 128  Highway.node[5].prot  frontDelayId  ETV
vector 198  Highway.node[8].prot  leaderDelay  ETV
vector 196  Highway.node[8].prot  leaderDelayId  ETV
vector 267  Highway.node[11].prot  leaderDelay  ETV
vector 265  Highway.node[11].prot  leaderDelayId  ETV
vector 245  Highway.node[10].prot  frontDelay  ETV
vector 243  Highway.node[10].prot  frontDelayId  ETV
vector 175  Highway.node[7].prot  leaderDelay  ETV
vector 173  Highway.node[7].prot  leaderDelayId  ETV
vector 176  Highway.node[7].prot  frontDelay  ETV
vector 174  Highway.node[7].prot  frontDelayId  ETV
vector 244  Highway.node[10].prot  leaderDelay  ETV
vector 242  Highway.node[10].prot  leaderDelayId  ETV
vector 83  Highway.node[3].prot  leaderDelay  ETV
vector 81  Highway.node[3].prot  leaderDelayId  ETV
vector 199  Highway.node[8].prot  frontDelay  ETV
vector 197  Highway.node[8].prot  frontDelayId  ETV
vector 9  Highway.node[0].prot  nodeId  ETV
vector 10  Highway.node[0].prot  busyTime  ETV
vector 11  Highway.node[0].prot  collisions  ETV
vector 32  Highway.node[1].prot  nodeId  ETV
vector 33  Highway.node[1].prot  busyTime  ETV
vector 34  Highway.node[1].prot  collisions  ETV
vector 55  Highway.node[2].prot  nodeId  ETV
vector 56  Highway.node[2].prot  busyTime  ETV
vector 57  Highway.node[2].prot  collisions  ETV
vector 78  Highway.node[3].prot  nodeId  ETV
vector 79  Highway.node[3].prot  busyTime  ETV
vector 80  Highway.node[3].prot  collisions  ETV
vector 101  Highway.node[4].prot  nodeId  ETV
vector 102  Highway.node[4].prot  busyTime  ETV
vector 103  Highway.node[4].prot  collisions  ETV
vector 124  Highway.node[5].prot  nodeId  ETV
vector 125  Highway.node[5].prot  busyTime  ETV
vector 126  Highway.node[5].prot  collisions  ETV
vector 147  Highway.node[6].prot  nodeId  ETV
vector 148  Highway.node[6].prot  busyTime  ETV
vector 149  Highway.node[6].prot  collisions  ETV
vector 170  Highway.node[7].prot  nodeId  ETV
vector 171  Highway.node[7].prot  busyTime  ETV
vector 172  Highway.node[7].prot  collisions  ETV
vector 193  Highway.node[8].prot  nodeId  ETV
vector 194  Highway.node[8].prot  busyTime  ETV
vector 195  Highway.node[8].prot  collisions  ETV
vector 216  Highway.node[9].prot  nodeId  ETV
vector 217  Highway.node[9].prot  busyTime  ETV
vector 218  Highway.node[9].prot  collisions  ETV
vector 239  Highway.node[10].prot  nodeId  ETV
vector 240  Highway.node[10].prot  busyTime  ETV
vector 241  Highway.node[10].prot  collisions  ETV
vector 262  Highway.node[11].prot  nodeId  ETV
vector 263  Highway.node[11].prot  busyTime  ETV
vector 264  Highway.node[11].prot  collisions  ETV
8	333	1.11	-0.00218518
8	1721	1.21	-0.00213419
8	3108	1.31	-0.00205408
8	4496	1.41	-0.00195152
8	5883	1.51	-0.00183238
8	7270	1.61	-0.00170178
8	8656	1.71	-0.00156412
8	10043	1.81	-0.00142314
8	11429	1.91	-0.00128196
8	12830	2.01	-0.00114315
8	14216	2.11	-0.00100877
8	15602	2.21	-0.000880447
8	16988	2.31	-0.000759381
8	18374	2.41	-0.000646445
8	19760	2.51	-0.000542204
8	21146	2.61	-0.000446965
8	22532	2.71	-0.000360819
8	23918	2.81	-0.000283678
8	25304	2.91	-0.000215307
8	26702	3.01	-0.000155357
8	28088	3.11	-0.000103391
8	29474	3.21	-5.89069e-05
8	30860	3.31	-2.13575e-05
8	32246	3.41	9.82919e-06
8	33632	3.51	3.52368e-05
8	35018	3.61	5.54479e-05
8	36404	3.71	7.10335e-05
8	37790	3.81	8.25451e-05
8	39176	3.91	9.05081e-05
8	40574	4.01	9.54172e-05
8	41960	4.11	9.7733e-05
8	43346	4.21	9.78798e-05
8	44732	4.31	9.62447e-05
8	46118	4.41	9.31771e-05
8	47504	4.51	8.89894e-05
8	48890	4.61	8.39579e-05
8	50276	4.71	7.83245e-05
8	51662	4.81	7.22983e-05
8	53048	4.91	6.6058e-05
8	54449	5.01	-8
8	55835	5.11	-8
8	57221	5.21	-8
8	58607	5.31	-8
8	59993	5.41	-8
8	61379	5.51	-8
8	62765	5.61	-8
8	64151	5.71	-8
8	65537	5.81	-8
8	66923	5.91	-8
8	68321	6.01	-8
8	69707	6.11	-8
8	71093	6.21	-8
8	72479	6.31	-8
8	73865	6.41	-8
8	75251	6.51	-8
8	76637	6.61	-8
8	78023	6.71	-8
8	79409	6.81	-8
8	80795	6.91	-8
8	82193	7.01	-8
8	83579	7.11	-8
8	84965	7.21	-8
8	86351	7.31	-8
8	87737	7.41	-8
8	89123	7.51	-8
8	90509	7.61	-8
8	91895	7.71	-8
8	93281	7.81	-8
8	94667	7.91	-8
8	96065	8.01	-8
8	97451	8.11	-8
8	98837	8.21	-8
8	100223	8.31	-8
8	101609	8.41	-8
8	102995	8.51	-8
8	104381	8.61	-8
8	105767	8.71	-8
8	107153	8.81	-8
8	108539	8.91	-8
8	109937	9.01	0
8	111323	9.11	0
8	112709	9.21	0
8	114095	9.31	0
8	115481	9.41	0
8	116867	9.51	0
7	333	1.11	-0.000358191
7	1721	1.21	-0.000681704
7	3108	1.31	-0.00093487
7	4496	1.41	-0.00112579
7	5883	1.51	-0.00126221
7	7270	1.61	-0.00135149
7	8656	1.71	-0.00140049
7	10043	1.81	-0.00141557
7	11429	1.91	-0.00140255
7	12830	2.01	-0.00136671
7	14216	2.11	-0.0013128
7	15602	2.21	-0.00124502
7	16988	2.31	-0.0011671
7	18374	2.41	-0.00108223
7	19760	2.51	-0.000993208
7	21146	2.61	-0.000902362
7	22532	2.71	-0.000811651
7	23918	2.81	-0.000722679
7	25304	2.91	-0.000636729
7	26702	3.01	-0.0005548
7	28088	3.11	-0.000477639
7	29474	3.21	-0.000405773
7	30860	3.31	-0.00033954
7	32246	3.41	-0.000279116
7	33632	3.51	-0.000224541
7	35018	3.61	-0.000175743
7	36404	3.71	-0.00013256
7	37790	3.81	-9.47571e-05
7	39176	3.91	-6.2046e-05
7	40574	4.01	-3.40986e-05
7	41960	4.11	-1.05605e-05
7	43346	4.21	8.93844e-06
7	44732	4.31	2.4774e-05
7	46118	4.41	3.73203e-05
7	47504	4.51	4.69433e-05
7	48890	4.61	5.39956e-05
7	50276	4.71	5.88124e-05
7	51662	4.81	6.1709e-05
7	53048	4.91	6.29785e-05
7	54449	5.01	-0.156801
7	55835	5.11	-1.56585
7	57221	5.21	-2.72175
7	58607	5.31	-3.67
7	59993	5.41	-4.44789
7	61379	5.51	-5.08603
7	62765	5.61	-5.60953
7	64151	5.71	-6.03898
7	65537	5.81	-6.39128
7	66923	5.91	-6.68029
7	68321	6.01	-6.91738
7	69707	6.11	-7.11187
7	71093	6.21	-7.27143
7	72479	6.31	-7.40232
7	73865	6.41	-7.50969
7	75251	6.51	-7.59778
7	76637	6.61	-7.67004
7	78023	6.71	-7.72932
7	79409	6.81	-7.77794
7	80795	6.91	-7.81784
7	82193	7.01	-7.85056
7	83579	7.11	-7.87741
7	84965	7.21	-7.89943
7	86351	7.31	-7.9175
7	87737	7.41	-7.93232
7	89123	7.51	-7.94448
7	90509	7.61	-7.95445
7	91895	7.71	-7.96264
7	93281	7.81	-7.96935
7	94667	7.91	-7.97486
7	96065	8.01	-7.97937
7	97451	8.11	-7.98308
7	98837	8.21	-7.98612
7	100223	8.31	-7.98861
7	101609	8.41	-7.99066
7	102995	8.51	-7.99234
7	104381	8.61	-7.99371
7	105767	8.71	-7.99484
7	107153	8.81	-7.99577
7	108539	8.91	-7.99653
7	109937	9.01	0
7	111323	9.11	0
7	112709	9.21	0
7	114095	9.31	0
7	115481	9.41	0
7	116867	9.51	0
6	333	1.11	242.45
6	1721	1.21	242.45
6	3108	1.31	242.45
6	4496	1.41	242.45
6	5883	1.51	242.45
6	7270	1.61	242.45
6	8656	1.71	242.45
6	10043	1.81	242.45
6	11429	1.91	242.45
6	12830	2.01	242.45
6	14216	2.11	242.45
6	15602	2.21	242.45
6	16988	2.31	242.45
6	18374	2.41	242.45
6	19760	2.51	242.45
6	21146	2.61	242.45
6	22532	2.71	242.45
6	23918	2.81	242.45
6	25304	2.91	242.45
6	26702	3.01	242.45
6	28088	3.11	242.45
6	29474	3.21	242.45
6	30860	3.31	242.45
6	32246	3.41	242.45
6	33632	3.51	242.45
6	35018	3.61	242.45
6	36404	3.71	242.45
6	37790	3.81	242.45
6	39176	3.91	242.45
6	40574	4.01	242.45
6	41960	4.11	242.45
6	43346	4.21	242.45
6	44732	4.31	242.45
6	46118	4.41	242.45
6	47504	4.51	242.45
6	48890	4.61	242.45
6	50276	4.71	242.45
6	51662	4.81	242.45
6	53048	4.91	242.45
6	54449	5.01	242.45
6	55835	5.11	242.45
6	57221	5.21	242.45
6	58607	5.31	242.45
6	59993	5.41	242.45
6	61379	5.51	242.45
6	62765	5.61	242.45
6	64151	5.71	242.45
6	65537	5.81	242.45
6	66923	5.91	242.45
6	68321	6.01	242.45
6	69707	6.11	242.45
6	71093	6.21	242.45
6	72479	6.31	242.45
6	73865	6.41	242.45
6	75251	6.51	242.45
6	76637	6.61	242.45
6	78023	6.71	242.45
6	79409	6.81	242.45
6	80795	6.91	242.45
6	82193	7.01	242.45
6	83579	7.11	242.45
6	84965	7.21	242.45
6	86351	7.31	242.45
6	87737	7.41	242.45
6	89123	7.51	242.45
6	90509	7.61	242.45
6	91895	7.71	242.45
6	93281	7.81	242.45
6	94667	7.91	242.45
6	96065	8.01	242.45
6	97451	8.11	242.45
6	98837	8.21	242.45
6	100223	8.31	242.45
6	101609	8.41	242.45
6	102995	8.51	242.45
6	104381	8.61	242.45
6	105767	8.71	242.45
6	107153	8.81	242.45
6	108539	8.91	242.45
6	109937	9.01	242.45
6	111323	9.11	242.45
6	112709	9.21	242.45
6	114095	9.31	242.45
6	115481	9.41	242.45
6	116867	9.51	242.45
5	333	1.11	53.9402
5	1721	1.21	56.7182
5	3108	1.31	59.4962
5	4496	1.41	62.2742
5	5883	1.51	65.0521
5	7270	1.61	67.8301
5	8656	1.71	70.608
5	10043	1.81	73.386
5	11429	1.91	76.1639
5	12830	2.01	78.9418
5	14216	2.11	81.7197
5	15602	2.21	84.4975
5	16988	2.31	87.2754
5	18374	2.41	90.0532
5	19760	2.51	92.8311
5	21146	2.61	95.6089
5	22532	2.71	98.3867
5	23918	2.81	101.165
5	25304	2.91	103.942
5	26702	3.01	106.72
5	28088	3.11	109.498
5	29474	3.21	112.276
5	30860	3.31	115.054
5	32246	3.41	117.831
5	33632	3.51	120.609
5	35018	3.61	123.387
5	36404	3.71	126.165
5	37790	3.81	128.942
5	39176	3.91	131.72
5	40574	4.01	134.498
5	41960	4.11	137.276
5	43346	4.21	140.053
5	44732	4.31	142.831
5	46118	4.41	145.609
5	47504	4.51	148.387
5	48890	4.61	151.165
5	50276	4.71	153.942
5	51662	4.81	156.72
5	53048	4.91	159.498
5	54449	5.01	162.276
5	55835	5.11	165.05
5	57221	5.21	167.808
5	58607	5.31	170.538
5	59993	5.41	173.231
5	61379	5.51	175.88
5	62765	5.61	178.477
5	64151	5.71	181.019
5	65537	5.81	183.5
5	66923	5.91	185.916
5	68321	6.01	188.266
5	69707	6.11	190.547
5	71093	6.21	192.757
5	72479	6.31	194.893
5	73865	6.41	196.956
5	75251	6.51	198.943
5	76637	6.61	200.855
5	78023	6.71	202.69
5	79409	6.81	204.447
5	80795	6.91	206.127
5	82193	7.01	207.728
5	83579	7.11	209.251
5	84965	7.21	210.696
5	86351	7.31	212.061
5	87737	7.41	213.347
5	89123	7.51	214.554
5	90509	7.61	215.681
5	91895	7.71	216.729
5	93281	7.81	217.697
5	94667	7.91	218.585
5	96065	8.01	219.394
5	97451	8.11	220.123
5	98837	8.21	220.772
5	100223	8.31	221.341
5	101609	8.41	221.83
5	102995	8.51	222.239
5	104381	8.61	222.569
5	105767	8.71	222.818
5	107153	8.81	222.988
5	108539	8.91	223.077
5	109937	9.01	223.093
5	111323	9.11	223.093
5	112709	9.21	223.093
5	114095	9.31	223.093
5	115481	9.41	223.093
5	116867	9.51	223.093
4	333	1.11	27.78
4	1721	1.21	27.7799
4	3108	1.31	27.7798
4	4496	1.41	27.7797
4	5883	1.51	27.7796
4	7270	1.61	27.7795
4	8656	1.71	27.7794
4	10043	1.81	27.7792
4	11429	1.91	27.7791
4	12830	2.01	27.7789
4	14216	2.11	27.7788
4	15602	2.21	27.7787
4	16988	2.31	27.7785
4	18374	2.41	27.7784
4	19760	2.51	27.7783
4	21146	2.61	27.7782
4	22532	2.71	27.7782
4	23918	2.81	27.7781
4	25304	2.91	27.778
4	26702	3.01	27.7779
4	28088	3.11	27.7779
4	29474	3.21	27.7779
4	30860	3.31	27.7778
4	32246	3.41	27.7778
4	33632	3.51	27.7778
4	35018	3.61	27.7777
4	36404	3.71	27.7777
4	37790	3.81	27.7777
4	39176	3.91	27.7777
4	40574	4.01	27.7777
4	41960	4.11	27.7777
4	43346	4.21	27.7777
4	44732	4.31	27.7777
4	46118	4.41	27.7777
4	47504	4.51	27.7777
4	48890	4.61	27.7777
4	50276	4.71	27.7777
4	51662	4.81	27.7777
4	53048	4.91	27.7777
4	54449	5.01	27.7762
4	55835	5.11	27.6807
4	57221	5.21	27.4586
4	58607	5.31	27.1328
4	59993	5.41	26.7217
4	61379	5.51	26.2408
4	62765	5.61	25.7025
4	64151	5.71	25.1173
4	65537	5.81	24.4934
4	66923	5.91	23.8379
4	68321	6.01	23.1565
4	69707	6.11	22.4537
4	71093	6.21	21.7335
4	72479	6.31	20.9989
4	73865	6.41	20.2526
4	75251	6.51	19.4967
4	76637	6.61	18.7328
4	78023	6.71	17.9624
4	79409	6.81	17.1867
4	80795	6.91	16.4067
4	82193	7.01	15.6231
4	83579	7.11	14.8365
4	84965	7.21	14.0475
4	86351	7.31	13.2565
4	87737	7.41	12.4639
4	89123	7.51	11.67
4	90509	7.61	10.875
4	91895	7.71	10.0791
4	93281	7.81	9.28245
4	94667	7.91	8.4852
4	96065	8.01	7.68746
4	97451	8.11	6.88931
4	98837	8.21	6.09083
4	100223	8.31	5.29208
4	101609	8.41	4.4931
4	102995	8.51	3.69394
4	104381	8.61	2.89463
4	105767	8.71	2.09519
4	107153	8.81	1.29566
4	108539	8.91	0.496036
4	109937	9.01	0
4	111323	9.11	0
4	112709	9.21	0
4	114095	9.31	0
4	115481	9.41	0
4	116867	9.51	0
2	333	1.11	0
2	1721	1.21	0
2	3108	1.31	0
2	4496	1.41	0
2	5883	1.51	0
2	7270	1.61	0
2	8656	1.71	0
2	10043	1.81	0
2	11429	1.91	0
2	12830	2.01	0
2	14216	2.11	0
2	15602	2.21	0
2	16988	2.31	0
2	18374	2.41	0
2	19760	2.51	0
2	21146	2.61	0
2	22532	2.71	0
2	23918	2.81	0
2	25304	2.91	0
2	26702	3.01	0
2	28088	3.11	0
2	29474	3.21	0
2	30860	3.31	0
2	32246	3.41	0
2	33632	3.51	0
2	35018	3.61	0
2	36404	3.71	0
2	37790	3.81	0
2	39176	3.91	0
2	40574	4.01	0
2	41960	4.11	0
2	43346	4.21	0
2	44732	4.31	0
2	46118	4.41	0
2	47504	4.51	0
2	48890	4.61	0
2	50276	4.71	0
2	51662	4.81	0
2	53048	4.91	0
2	54449	5.01	0
2	55835	5.11	0
2	57221	5.21	0
2	58607	5.31	0
2	59993	5.41	0
2	61379	5.51	0
2	62765	5.61	0
2	64151	5.71	0
2	65537	5.81	0
2	66923	5.91	0
2	68321	6.01	0
2	69707	6.11	0
2	71093	6.21	0
2	72479	6.31	0
2	73865	6.41	0
2	75251	6.51	0
2	76637	6.61	0
2	78023	6.71	0
2	79409	6.81	0
2	80795	6.91	0
2	82193	7.01	0
2	83579	7.11	0
2	84965	7.21	0
2	86351	7.31	0
2	87737	7.41	0
2	89123	7.51	0
2	90509	7.61	0
2	91895	7.71	0
2	93281	7.81	0
2	94667	7.91	0
2	96065	8.01	0
2	97451	8.11	0
2	98837	8.21	0
2	100223	8.31	0
2	101609	8.41	0
2	102995	8.51	0
2	104381	8.61	0
2	105767	8.71	0
2	107153	8.81	0
2	108539	8.91	0
2	109937	9.01	0
2	111323	9.11	0
2	112709	9.21	0
2	114095	9.31	0
2	115481	9.41	0
2	116867	9.51	0
1	333	1.11	-1
1	1721	1.21	-1
1	3108	1.31	-1
1	4496	1.41	-1
1	5883	1.51	-1
1	7270	1.61	-1
1	8656	1.71	-1
1	10043	1.81	-1
1	11429	1.91	-1
1	12830	2.01	-1
1	14216	2.11	-1
1	15602	2.21	-1
1	16988	2.31	-1
1	18374	2.41	-1
1	19760	2.51	-1
1	21146	2.61	-1
1	22532	2.71	-1
1	23918	2.81	-1
1	25304	2.91	-1
1	26702	3.01	-1
1	28088	3.11	-1
1	29474	3.21	-1
1	30860	3.31	-1
1	32246	3.41	-1
1	33632	3.51	-1
1	35018	3.61	-1
1	36404	3.71	-1
1	37790	3.81	-1
1	39176	3.91	-1
1	40574	4.01	-1
1	41960	4.11	-1
1	43346	4.21	-1
1	44732	4.31	-1
1	46118	4.41	-1
1	47504	4.51	-1
1	48890	4.61	-1
1	50276	4.71	-1
1	51662	4.81	-1
1	53048	4.91	-1
1	54449	5.01	-1
1	55835	5.11	-1
1	57221	5.21	-1
1	58607	5.31	-1
1	59993	5.41	-1
1	61379	5.51	-1
1	62765	5.61	-1
1	64151	5.71	-1
1	65537	5.81	-1
1	66923	5.91	-1
1	68321	6.01	-1
1	69707	6.11	-1
1	71093	6.21	-1
1	72479	6.31	-1
1	73865	6.41	-1
1	75251	6.51	-1
1	76637	6.61	-1
1	78023	6.71	-1
1	79409	6.81	-1
1	80795	6.91	-1
1	82193	7.01	-1
1	83579	7.11	-1
1	84965	7.21	-1
1	86351	7.31	-1
1	87737	7.41	-1
1	89123	7.51	-1
1	90509	7.61	-1
1	91895	7.71	-1
1	93281	7.81	-1
1	94667	7.91	-1
1	96065	8.01	-1
1	97451	8.11	-1
1	98837	8.21	-1
1	100223	8.31	-1
1	101609	8.41	-1
1	102995	8.51	-1
1	104381	8.61	-1
1	105767	8.71	-1
1	107153	8.81	-1
1	108539	8.91	-1
1	109937	9.01	-1
1	111323	9.11	-1
1	112709	9.21	-1
1	114095	9.31	-1
1	115481	9.41	-1
1	116867	9.51	-1
3	333	1.11	0
3	1721	1.21	0
3	3108	1.31	0
3	4496	1.41	0
3	5883	1.51	0
3	7270	1.61	0
3	8656	1.71	0
3	10043	1.81	0
3	11429	1.91	0
3	12830	2.01	0
3	14216	2.11	0
3	15602	2.21	0
3	16988	2.31	0
3	18374	2.41	0
3	19760	2.51	0
3	21146	2.61	0
3	22532	2.71	0
3	23918	2.81	0
3	25304	2.91	0
3	26702	3.01	0
3	28088	3.11	0
3	29474	3.21	0
3	30860	3.31	0
3	32246	3.41	0
3	33632	3.51	0
3	35018	3.61	0
3	36404	3.71	0
3	37790	3.81	0
3	39176	3.91	0
3	40574	4.01	0
3	41960	4.11	0
3	43346	4.21	0
3	44732	4.31	0
3	46118	4.41	0
3	47504	4.51	0
3	48890	4.61	0
3	50276	4.71	0
3	51662	4.81	0
3	53048	4.91	0
3	54449	5.01	0
3	55835	5.11	0
3	57221	5.21	0
3	58607	5.31	0
3	59993	5.41	0
3	61379	5.51	0
3	62765	5.61	0
3	64151	5.71	0
3	65537	5.81	0
3	66923	5.91	0
3	68321	6.01	0
3	69707	6.11	0
3	71093	6.21	0
3	72479	6.31	0
3	73865	6.41	0
3	75251	6.51	0
3	76637	6.61	0
3	78023	6.71	0
3	79409	6.81	0
3	80795	6.91	0
3	82193	7.01	0
3	83579	7.11	0
3	84965	7.21	0
3	86351	7.31	0
3	87737	7.41	0
3	89123	7.51	0
3	90509	7.61	0
3	91895	7.71	0
3	93281	7.81	0
3	94667	7.91	0
3	96065	8.01	0
3	97451	8.11	0
3	98837	8.21	0
3	100223	8.31	0
3	101609	8.41	0
3	102995	8.51	0
3	104381	8.61	0
3	105767	8.71	0
3	107153	8.81	0
3	108539	8.91	0
3	109937	9.01	0
3	111323	9.11	0
3	112709	9.21	0
3	114095	9.31	0
3	115481	9.41	0
3	116867	9.51	0
11	12604	2	0
11	26478	3	0
11	40350	4	0
11	54225	5	0
11	68097	6	0
11	81969	7	0
11	95841	8	0
11	109713	9	0
10	12604	2	0.062105
10	26478	3	0.06905
10	40350	4	0.06905
10	54225	5	0.06905
10	68097	6	0.06905
10	81969	7	0.06905
10	95841	8	0.06905
10	109713	9	0.06905
9	12604	2	0
9	26478	3	0
9	40350	4	0
9	54225	5	0
9	68097	6	0
9	81969	7	0
9	95841	8	0
9	109713	9	0
31	334	1.11	-0.00218518
31	1722	1.21	-0.00213419
31	3109	1.31	-0.00205408
31	4497	1.41	-0.00195152
31	5884	1.51	-0.00183238
31	7271	1.61	-0.00170178
31	8657	1.71	-0.00156412
31	10044	1.81	-0.00142314
31	11430	1.91	-0.00128196
31	12831	2.01	-0.00114315
31	14217	2.11	-0.00100877
31	15603	2.21	-0.000880447
31	16989	2.31	-0.000759381
31	18375	2.41	-0.000646445
31	19761	2.51	-0.000542204
31	21147	2.61	-0.000446965
31	22533	2.71	-0.000360819
31	23919	2.81	-0.000283678
31	25305	2.91	-0.000215307
31	26703	3.01	-0.000155357
31	28089	3.11	-0.000103391
31	29475	3.21	-5.89069e-05
31	30861	3.31	-2.13575e-05
31	32247	3.41	9.82919e-06
31	33633	3.51	3.52368e-05
31	35019	3.61	5.54479e-05
31	36405	3.71	7.10335e-05
31	37791	3.81	8.25451e-05
31	39177	3.91	9.05081e-05
31	40575	4.01	9.54172e-05
31	41961	4.11	9.7733e-05
31	43347	4.21	9.78798e-05
31	44733	4.31	9.62447e-05
31	46119	4.41	9.31771e-05
31	47505	4.51	8.89894e-05
31	48891	4.61	8.39579e-05
31	50277	4.71	7.83245e-05
31	51663	4.81	7.22983e-05
31	53049	4.91	6.6058e-05
31	54450	5.01	-8
31	55836	5.11	-8
31	57222	5.21	-8
31	58608	5.31	-8
31	59994	5.41	-8
31	61380	5.51	-8
31	62766	5.61	-8
31	64152	5.71	-8
31	65538	5.81	-8
31	66924	5.91	-8
31	68322	6.01	-8
31	69708	6.11	-8
31	71094	6.21	-8
31	72480	6.31	-8
31	73866	6.41	-8
31	75252	6.51	-8
31	76638	6.61	-8
31	78024	6.71	-8
31	79410	6.81	-8
31	80796	6.91	-8
31	82194	7.01	-8
31	83580	7.11	-8
31	84966	7.21	-8
31	86352	7.31	-8
31	87738	7.41	-8
31	89124	7.51	-8
31	90510	7.61	-8
31	91896	7.71	-8
31	93282	7.81	-8
31	94668	7.91	-8
31	96066	8.01	-8
31	97452	8.11	-8
31	98838	8.21	-8
31	100224	8.31	-8
31	101610	8.41	-8
31	102996	8.51	-8
31	104382	8.61	-8
31	105768	8.71	-8
31	107154	8.81	-8
31	108540	8.91	-8
31	109938	9.01	0
31	111324	9.11	0
31	112710	9.21	0
31	114096	9.31	0
31	115482	9.41	0
31	116868	9.51	0
30	334	1.11	-0.000358191
30	1722	1.21	-0.000681704
30	3109	1.31	-0.00093487
30	4497	1.41	-0.00112579
30	5884	1.51	-0.00126221
30	7271	1.61	-0.00135149
30	8657	1.71	-0.00140049
30	10044	1.81	-0.00141557
30	11430	1.91	-0.00140255
30	12831	2.01	-0.00136671
30	14217	2.11	-0.0013128
30	15603	2.21	-0.00124502
30	16989	2.31	-0.0011671
30	18375	2.41	-0.00108223
30	19761	2.51	-0.000993208
30	21147	2.61	-0.000902362
30	22533	2.71	-0.000811651
30	23919	2.81	-0.000722679
30	25305	2.91	-0.000636729
30	26703	3.01	-0.0005548
30	28089	3.11	-0.000477639
30	29475	3.21	-0.000405773
30	30861	3.31	-0.00033954
30	32247	3.41	-0.000279116
30	33633	3.51	-0.000224541
30	35019	3.61	-0.000175743
30	36405	3.71	-0.00013256
30	37791	3.81	-9.47571e-05
30	39177	3.91	-6.2046e-05
30	40575	4.01	-3.40986e-05
30	41961	4.11	-1.05605e-05
30	43347	4.21	8.93844e-06
30	44733	4.31	2.4774e-05
30	46119	4.41	3.73203e-05
30	47505	4.51	4.69433e-05
30	48891	4.61	5.39956e-05
30	50277	4.71	5.88124e-05
30	51663	4.81	6.1709e-05
30	53049	4.91	6.29785e-05
30	54450	5.01	-0.156801
30	55836	5.11	-1.56585
30	57222	5.21	-2.72175
30	58608	5.31	-3.67
30	59994	5.41	-4.44789
30	61380	5.51	-5.08603
30	62766	5.61	-5.60953
30	64152	5.71	-6.03898
30	65538	5.81	-6.39128
30	66924	5.91	-6.68029
30	68322	6.01	-6.91738
30	69708	6.11	-7.11187
30	71094	6.21	-7.27143
30	72480	6.31	-7.40232
30	73866	6.41	-7.50969
30	75252	6.51	-7.59778
30	76638	6.61	-7.67004
30	78024	6.71	-7.72932
30	79410	6.81	-7.77794
30	80796	6.91	-7.81784
30	82194	7.01	-7.85056
30	83580	7.11	-7.87741
30	84966	7.21	-7.89943
30	86352	7.31	-7.9175
30	87738	7.41	-7.93232
30	89124	7.51	-7.94448
30	90510	7.61	-7.95445
30	91896	7.71	-7.96264
30	93282	7.81	-7.96935
30	94668	7.91	-7.97486
30	96066	8.01	-7.97937
30	97452	8.11	-7.98308
30	98838	8.21	-7.98612
30	100224	8.31	-7.98861
30	101610	8.41	-7.99066
30	102996	8.51	-7.99234
30	104382	8.61	-7.99371
30	105768	8.71	-7.99484
30	107154	8.81	-7.99577
30	108540	8.91	-7.99653
30	109938	9.01	0
30	111324	9.11	0
30	112710	9.21	0
30	114096	9.31	0
30	115482	9.41	0
30	116868	9.51	0
29	334	1.11	245.75
29	1722	1.21	245.75
29	3109	1.31	245.75
29	4497	1.41	245.75
29	5884	1.51	245.75
29	7271	1.61	245.75
29	8657	1.71	245.75
29	10044	1.81	245.75
29	11430	1.91	245.75
29	12831	2.01	245.75
29	14217	2.11	245.75
29	15603	2.21	245.75
29	16989	2.31	245.75
29	18375	2.41	245.75
29	19761	2.51	245.75
29	21147	2.61	245.75
29	22533	2.71	245.75
29	23919	2.81	245.75
29	25305	2.91	245.75
29	26703	3.01	245.75
29	28089	3.11	245.75
29	29475	3.21	245.75
29	30861	3.31	245.75
29	32247	3.41	245.75
29	33633	3.51	245.75
29	35019	3.61	245.75
29	36405	3.71	245.75
29	37791	3.81	245.75
29	39177	3.91	245.75
29	40575	4.01	245.75
29	41961	4.11	245.75
29	43347	4.21	245.75
29	44733	4.31	245.75
29	46119	4.41	245.75
29	47505	4.51	245.75
29	48891	4.61	245.75
29	50277	4.71	245.75
29	51663	4.81	245.75
29	53049	4.91	245.75
29	54450	5.01	245.75
29	55836	5.11	245.75
29	57222	5.21	245.75
29	58608	5.31	245.75
29	59994	5.41	245.75
29	61380	5.51	245.75
29	62766	5.61	245.75
29	64152	5.71	245.75
29	65538	5.81	245.75
29	66924	5.91	245.75
29	68322	6.01	245.75
29	69708	6.11	245.75
29	71094	6.21	245.75
29	72480	6.31	245.75
29	73866	6.41	245.75
29	75252	6.51	245.75
29	76638	6.61	245.75
29	78024	6.71	245.75
29	79410	6.81	245.75
29	80796	6.91	245.75
29	82194	7.01	245.75
29	83580	7.11	245.75
29	84966	7.21	245.75
29	86352	7.31	245.75
29	87738	7.41	245.75
29	89124	7.51	245.75
29	90510	7.61	245.75
29	91896	7.71	245.75
29	93282	7.81	245.75
29	94668	7.91	245.75
29	96066	8.01	245.75
29	97452	8.11	245.75
29	98838	8.21	245.75
29	100224	8.31	245.75
29	101610	8.41	245.75
29	102996	8.51	245.75
29	104382	8.61	245.75
29	105768	8.71	245.75
29	107154	8.81	245.75
29	108540	8.91	245.75
29	109938	9.01	245.75
29	111324	9.11	245.75
29	112710	9.21	245.75
29	114096	9.31	245.75
29	115482	9.41	245.75
29	116868	9.51	245.75
28	334	1.11	50.6002
28	1722	1.21	53.3782
28	3109	1.31	56.1562
28	4497	1.41	58.9342
28	5884	1.51	61.7121
28	7271	1.61	64.4901
28	8657	1.71	67.268
28	10044	1.81	70.046
28	11430	1.91	72.8239
28	12831	2.01	75.6018
28	14217	2.11	78.3797
28	15603	2.21	81.1575
28	16989	2.31	83.9354
28	18375	2.41	86.7132
28	19761	2.51	89.4911
28	21147	2.61	92.2689
28	22533	2.71	95.0467
28	23919	2.81	97.8245
28	25305	2.91	100.602
28	26703	3.01	103.38
28	28089	3.11	106.158
28	29475	3.21	108.936
28	30861	3.31	111.714
28	32247	3.41	114.491
28	33633	3.51	117.269
28	35019	3.61	120.047
28	36405	3.71	122.825
28	37791	3.81	125.602
28	39177	3.91	128.38
28	40575	4.01	131.158
28	41961	4.11	133.936
28	43347	4.21	136.713
28	44733	4.31	139.491
28	46119	4.41	142.269
28	47505	4.51	145.047
28	48891	4.61	147.825
28	50277	4.71	150.602
28	51663	4.81	153.38
28	53049	4.91	156.158
28	54450	5.01	158.936
28	55836	5.11	161.71
28	57222	5.21	164.468
28	58608	5.31	167.198
28	59994	5.41	169.891
28	61380	5.51	172.54
28	62766	5.61	175.137
28	64152	5.71	177.679
28	65538	5.81	180.16
28	66924	5.91	182.576
28	68322	6.01	184.926
28	69708	6.11	187.207
28	71094	6.21	189.417
28	72480	6.31	191.553
28	73866	6.41	193.616
28	75252	6.51	195.603
28	76638	6.61	197.515
28	78024	6.71	199.35
28	79410	6.81	201.107
28	80796	6.91	202.787
28	82194	7.01	204.388
28	83580	7.11	205.911
28	84966	7.21	207.356
28	86352	7.31	208.721
28	87738	7.41	210.007
28	89124	7.51	211.214
28	90510	7.61	212.341
28	91896	7.71	213.389
28	93282	7.81	214.357
28	94668	7.91	215.245
28	96066	8.01	216.054
28	97452	8.11	216.783
28	98838	8.21	217.432
28	100224	8.31	218.001
28	101610	8.41	218.49
28	102996	8.51	218.899
28	104382	8.61	219.229
28	105768	8.71	219.478
28	107154	8.81	219.648
28	108540	8.91	219.737
28	109938	9.01	219.753
28	111324	9.11	219.753
28	112710	9.21	219.753
28	114096	9.31	219.753
28	115482	9.41	219.753
28	116868	9.51	219.753
27	334	1.11	27.78
27	1722	1.21	27.7799
27	3109	1.31	27.7798
27	4497	1.41	27.7797
27	5884	1.51	27.7796
27	7271	1.61	27.7795
27	8657	1.71	27.7794
27	10044	1.81	27.7792
27	11430	1.91	27.7791
27	12831	2.01	27.7789
27	14217	2.11	27.7788
27	15603	2.21	27.7787
27	16989	2.31	27.7785
27	18375	2.41	27.7784
27	19761	2.51	27.7783
27	21147	2.61	27.7782
27	22533	2.71	27.7782
27	23919	2.81	27.7781
27	25305	2.91	27.778
27	26703	3.01	27.7779
27	28089	3.11	27.7779
27	29475	3.21	27.7779
27	30861	3.31	27.7778
27	32247	3.41	27.7778
27	33633	3.51	27.7778
27	35019	3.61	27.7777
27	36405	3.71	27.7777
27	37791	3.81	27.7777
27	39177	3.91	27.7777
27	40575	4.01	27.7777
27	41961	4.11	27.7777
27	43347	4.21	27.7777
27	44733	4.31	27.7777
27	46119	4.41	27.7777
27	47505	4.51	27.7777
27	48891	4.61	27.7777
27	50277	4.71	27.7777
27	51663	4.81	27.7777
27	53049	4.91	27.7777
27	54450	5.01	27.7762
27	55836	5.11	27.6807
27	57222	5.21	27.4586
27	58608	5.31	27.1328
27	59994	5.41	26.7217
27	61380	5.51	26.2408
27	62766	5.61	25.7025
27	64152	5.71	25.1173
27	65538	5.81	24.4934
27	66924	5.91	23.8379
27	68322	6.01	23.1565
27	69708	6.11	22.4537
27	71094	6.21	21.7335
27	72480	6.31	20.9989
27	73866	6.41	20.2526
27	75252	6.51	19.4967
27	76638	6.61	18.7328
27	78024	6.71	17.9624
27	79410	6.81	17.1867
27	80796	6.91	16.4067
27	82194	7.01	15.6231
27	83580	7.11	14.8365
27	84966	7.21	14.0475
27	86352	7.31	13.2565
27	87738	7.41	12.4639
27	89124	7.51	11.67
27	90510	7.61	10.875
27	91896	7.71	10.0791
27	93282	7.81	9.28245
27	94668	7.91	8.4852
27	96066	8.01	7.68746
27	97452	8.11	6.88931
27	98838	8.21	6.09083
27	100224	8.31	5.29208
27	101610	8.41	4.4931
27	102996	8.51	3.69394
27	104382	8.61	2.89463
27	105768	8.71	2.09519
27	107154	8.81	1.29566
27	108540	8.91	0.496036
27	109938	9.01	0
27	111324	9.11	0
27	112710	9.21	0
27	114096	9.31	0
27	115482	9.41	0
27	116868	9.51	0
25	334	1.11	0
25	1722	1.21	0
25	3109	1.31	0
25	4497	1.41	0
25	5884	1.51	0
25	7271	1.61	0
25	8657	1.71	0
25	10044	1.81	0
25	11430	1.91	0
25	12831	2.01	0
25	14217	2.11	0
25	15603	2.21	0
25	16989	2.31	0
25	18375	2.41	0
25	19761	2.51	0
25	21147	2.61	0
25	22533	2.71	0
25	23919	2.81	0
25	25305	2.91	0
25	26703	3.01	0
25	28089	3.11	0
25	29475	3.21	0
25	30861	3.31	0
25	32247	3.41	0
25	33633	3.51	0
25	35019	3.61	0
25	36405	3.71	0
25	37791	3.81	0
25	39177	3.91	0
25	40575	4.01	0
25	41961	4.11	0
25	43347	4.21	0
25	44733	4.31	0
25	46119	4.41	0
25	47505	4.51	0
25	48891	4.61	0
25	50277	4.71	0
25	51663	4.81	0
25	53049	4.91	0
25	54450	5.01	0
25	55836	5.11	0
25	57222	5.21	0
25	58608	5.31	0
25	59994	5.41	0
25	61380	5.51	0
25	62766	5.61	0
25	64152	5.71	0
25	65538	5.81	0
25	66924	5.91	0
25	68322	6.01	0
25	69708	6.11	0
25	71094	6.21	0
25	72480	6.31	0
25	73866	6.41	0
25	75252	6.51	0
25	76638	6.61	0
25	78024	6.71	0
25	79410	6.81	0
25	80796	6.91	0
25	82194	7.01	0
25	83580	7.11	0
25	84966	7.21	0
25	86352	7.31	0
25	87738	7.41	0
25	89124	7.51	0
25	90510	7.61	0
25	91896	7.71	0
25	93282	7.81	0
25	94668	7.91	0
25	96066	8.01	0
25	97452	8.11	0
25	98838	8.21	0
25	100224	8.31	0
25	101610	8.41	0
25	102996	8.51	0
25	104382	8.61	0
25	105768	8.71	0
25	107154	8.81	0
25	108540	8.91	0
25	109938	9.01	0
25	111324	9.11	0
25	112710	9.21	0
25	114096	9.31	0
25	115482	9.41	0
25	116868	9.51	0
24	334	1.11	-1
24	1722	1.21	-1
24	3109	1.31	-1
24	4497	1.41	-1
24	5884	1.51	-1
24	7271	1.61	-1
24	8657	1.71	-1
24	10044	1.81	-1
24	11430	1.91	-1
24	12831	2.01	-1
24	14217	2.11	-1
24	15603	2.21	-1
24	16989	2.31	-1
24	18375	2.41	-1
24	19761	2.51	-1
24	21147	2.61	-1
24	22533	2.71	-1
24	23919	2.81	-1
24	25305	2.91	-1
24	26703	3.01	-1
24	28089	3.11	-1
24	29475	3.21	-1
24	30861	3.31	-1
24	32247	3.41	-1
24	33633	3.51	-1
24	35019	3.61	-1
24	36405	3.71	-1
24	37791	3.81	-1
24	39177	3.91	-1
24	40575	4.01	-1
24	41961	4.11	-1
24	43347	4.21	-1
24	44733	4.31	-1
24	46119	4.41	-1
24	47505	4.51	-1
24	48891	4.61	-1
24	50277	4.71	-1
24	51663	4.81	-1
24	53049	4.91	-1
24	54450	5.01	-1
24	55836	5.11	-1
24	57222	5.21	-1
24	58608	5.31	-1
24	59994	5.41	-1
24	61380	5.51	-1
24	62766	5.61	-1
24	64152	5.71	-1
24	65538	5.81	-1
24	66924	5.91	-1
24	68322	6.01	-1
24	69708	6.11	-1
24	71094	6.21	-1
24	72480	6.31	-1
24	73866	6.41	-1
24	75252	6.51	-1
24	76638	6.61	-1
24	78024	6.71	-1
24	79410	6.81	-1
24	80796	6.91	-1
24	82194	7.01	-1
24	83580	7.11	-1
24	84966	7.21	-1
24	86352	7.31	-1
24	87738	7.41	-1
24	89124	7.51	-1
24	90510	7.61	-1
24	91896	7.71	-1
24	93282	7.81	-1
24	94668	7.91	-1
24	96066	8.01	-1
24	97452	8.11	-1
24	98838	8.21	-1
24	100224	8.31	-1
24	101610	8.41	-1
24	102996	8.51	-1
24	104382	8.61	-1
24	105768	8.71	-1
24	107154	8.81	-1
24	108540	8.91	-1
24	109938	9.01	-1
24	111324	9.11	-1
24	112710	9.21	-1
24	114096	9.31	-1
24	115482	9.41	-1
24	116868	9.51	-1
26	334	1.11	1
26	1722	1.21	1
26	3109	1.31	1
26	4497	1.41	1
26	5884	1.51	1
26	7271	1.61	1
26	8657	1.71	1
26	10044	1.81	1
26	11430	1.91	1
26	12831	2.01	1
26	14217	2.11	1
26	15603	2.21	1
26	16989	2.31	1
26	18375	2.41	1
26	19761	2.51	1
26	21147	2.61	1
26	22533	2.71	1
26	23919	2.81	1
26	25305	2.91	1
26	26703	3.01	1
26	28089	3.11	1
26	29475	3.21	1
26	30861	3.31	1
26	32247	3.41	1
26	33633	3.51	1
26	35019	3.61	1
26	36405	3.71	1
26	37791	3.81	1
26	39177	3.91	1
26	40575	4.01	1
26	41961	4.11	1
26	43347	4.21	1
26	44733	4.31	1
26	46119	4.41	1
26	47505	4.51	1
26	48891	4.61	1
26	50277	4.71	1
26	51663	4.81	1
26	53049	4.91	1
26	54450	5.01	1
26	55836	5.11	1
26	57222	5.21	1
26	58608	5.31	1
26	59994	5.41	1
26	61380	5.51	1
26	62766	5.61	1
26	64152	5.71	1
26	65538	5.81	1
26	66924	5.91	1
26	68322	6.01	1
26	69708	6.11	1
26	71094	6.21	1
26	72480	6.31	1
26	73866	6.41	1
26	75252	6.51	1
26	76638	6.61	1
26	78024	6.71	1
26	79410	6.81	1
26	80796	6.91	1
26	82194	7.01	1
26	83580	7.11	1
26	84966	7.21	1
26	86352	7.31	1
26	87738	7.41	1
26	89124	7.51	1
26	90510	7.61	1
26	91896	7.71	1
26	93282	7.81	1
26	94668	7.91	1
26	96066	8.01	1
26	97452	8.11	1
26	98838	8.21	1
26	100224	8.31	1
26	101610	8.41	1
26	102996	8.51	1
26	104382	8.61	1
26	105768	8.71	1
26	107154	8.81	1
26	108540	8.91	1
26	109938	9.01	1
26	111324	9.11	1
26	112710	9.21	1
26	114096	9.31	1
26	115482	9.41	1
26	116868	9.51	1
34	12605	2	0
34	26479	3	0
34	40351	4	0
34	54226	5	0
34	68098	6	0
34	81970	7	0
34	95842	8	0
34	109714	9	0
33	12605	2	0.062105
33	26479	3	0.06905
33	40351	4	0.06905
33	54226	5	0.06905
33	68098	6	0.06905
33	81970	7	0.06905
33	95842	8	0.06905
33	109714	9	0.06905
32	12605	2	1
32	26479	3	1
32	40351	4	1
32	54226	5	1
32	68098	6	1
32	81970	7	1
32	95842	8	1
32	109714	9	1
54	335	1.11	0.00192379
54	1723	1.21	0.00166409
54	3110	1.31	0.00126616
54	4498	1.41	0.000777448
54	5885	1.51	0.000242249
54	7272	1.61	-0.000300693
54	8658	1.71	-0.000819714
54	10045	1.81	-0.00129095
54	11431	1.91	-0.0016983
54	12832	2.01	-0.00203284
54	14218	2.11	-0.00229168
54	15604	2.21	-0.0024767
54	16990	2.31	-0.00259307
54	18376	2.41	-0.0026479
54	19762	2.51	-0.00264903
54	21148	2.61	-0.00260412
54	22534	2.71	-0.00251998
54	23920	2.81	-0.00240225
54	25306	2.91	-0.00225536
54	26704	3.01	-0.00208266
54	28090	3.11	-0.00188679
54	29476	3.21	-0.00167006
54	30862	3.31	-0.00143491
54	32248	3.41	-0.00118428
54	33634	3.51	-0.000921867
54	35020	3.61	-0.000652319
54	36406	3.71	-0.00038121
54	37792	3.81	-0.000114913
54	39178	3.91	0.000139664
54	40576	4.01	0.000375434
54	41962	4.11	0.000585553
54	43348	4.21	0.000763847
54	44734	4.31	0.000905224
54	46120	4.41	0.00100602
54	47506	4.51	0.00106427
54	48892	4.61	0.00107981
54	50278	4.71	0.00105439
54	51664	4.81	0.000991471
54	53050	4.91	0.000896109
54	54451	5.01	0.000774607
54	55837	5.11	0.000630544
54	57223	5.21	0.00028792
54	58609	5.31	-0.00161224
54	59995	5.41	-0.0094677
54	61381	5.51	-0.0325763
54	62767	5.61	-0.0862519
54	64153	5.71	-0.19176
54	65539	5.81	-0.37495
54	66925	5.91	-0.663732
54	68323	6.01	-1.08474
54	69709	6.11	-1.65967
54	71095	6.21	-2.40175
54	72481	6.31	-3.31287
54	73867	6.41	-4.38175
54	75253	6.51	-5.58333
54	76639	6.61	-6.87951
54	78025	6.71	-8.22127
54	79411	6.81	-9.55177
54	80797	6.91	-10.8043
54	82195	7.01	-11.786
54	83581	7.11	-12.4316
54	84967	7.21	-12.7602
54	86353	7.31	-12.8328
54	87739	7.41	-12.8667
54	89125	7.51	-12.9006
54	90511	7.61	-12.9345
54	91897	7.71	-12.9683
54	93283	7.81	-13.0022
54	94669	7.91	-13.0361
54	96067	8.01	-13.0699
54	97453	8.11	-13.1038
54	98839	8.21	-13.1356
54	100225	8.31	-13.1468
54	101611	8.41	-13.1152
54	102997	8.51	-13.0254
54	104383	8.61	-12.8686
54	105769	8.71	-12.6426
54	107155	8.81	-12.3503
54	108541	8.91	-11.9991
54	109939	9.01	-11.599
54	111325	9.11	-11.1621
54	112711	9.21	-10.6966
54	114097	9.31	-10.2
54	115483	9.41	-9.63284
54	116869	9.51	-283.577
53	335	1.11	0.000321619
53	1723	1.21	0.000585408
53	3110	1.31	0.000740381
53	4498	1.41	0.000786108
53	5885	1.51	0.000730479
53	7272	1.61	0.000587387
53	8658	1.71	0.000374488
53	10045	1.81	0.000111164
53	11431	1.91	-0.000183194
53	12832	2.01	-0.000490525
53	14218	2.11	-0.000795047
53	15604	2.21	-0.0010838
53	16990	2.31	-0.00134683
53	18376	2.41	-0.00157714
53	19762	2.51	-0.00177035
53	21148	2.61	-0.00192426
53	22534	2.71	-0.00203837
53	23920	2.81	-0.00211337
53	25306	2.91	-0.00215072
53	26704	3.01	-0.00215231
53	28090	3.11	-0.00212019
53	29476	3.21	-0.0020565
53	30862	3.31	-0.0019634
53	32248	3.41	-0.00184316
53	33634	3.51	-0.00169823
53	35020	3.61	-0.0015314
53	36406	3.71	-0.00134587
53	37792	3.81	-0.00114535
53	39178	3.91	-0.000934104
53	40576	4.01	-0.000716885
53	41962	4.11	-0.000498846
53	43348	4.21	-0.000285384
53	44734	4.31	-8.19316e-05
53	46120	4.41	0.000106282
53	47506	4.51	0.000274478
53	48892	4.61	0.000418565
53	50278	4.71	0.000535352
53	51664	4.81	0.000622713
53	53050	4.91	0.000679691
53	54451	5.01	0.000706541
53	55837	5.11	0.000704562
53	57223	5.21	0.000663913
53	58609	5.31	0.000447399
53	59995	5.41	-0.000581167
53	61381	5.51	-0.00420889
53	62767	5.61	-0.0141759
53	64153	5.71	-0.0369176
53	65539	5.81	-0.0820295
53	66925	5.91	-0.162281
53	68323	6.01	-0.293084
53	69709	6.11	-0.491419
53	71095	6.21	-0.774298
53	72481	6.31	-1.15694
53	73867	6.41	-1.65084
53	75253	6.51	-2.262
53	76639	6.61	-2.98951
53	78025	6.71	-3.8246
53	79411	6.81	-4.75045
53	80797	6.91	-5.74241
53	82195	7.01	-6.75664
53	83581	7.11	-7.73069
53	84967	7.21	-8.61308
53	86353	7.31	-9
53	87739	7.41	-9
53	89125	7.51	-9
53	90511	7.61	-9
53	91897	7.71	-9
53	93283	7.81	-9
53	94669	7.91	-9
53	96067	8.01	-9
53	97453	8.11	-9
53	98839	8.21	-9
53	100225	8.31	-9
53	101611	8.41	-9
53	102997	8.51	-9
53	104383	8.61	-9
53	105769	8.71	-9
53	107155	8.81	-9
53	108541	8.91	-9
53	109939	9.01	-9
53	111325	9.11	-9
53	112711	9.21	-9
53	114097	9.31	-9
53	115483	9.41	-9
53	116869	9.51	-9
52	335	1.11	245.75
52	1723	1.21	245.75
52	3110	1.31	245.75
52	4498	1.41	245.75
52	5885	1.51	245.75
52	7272	1.61	245.75
52	8658	1.71	245.75
52	10045	1.81	245.75
52	11431	1.91	245.75
52	12832	2.01	245.75
52	14218	2.11	245.75
52	15604	2.21	245.75
52	16990	2.31	245.75
52	18376	2.41	245.75
52	19762	2.51	245.75
52	21148	2.61	245.75
52	22534	2.71	245.75
52	23920	2.81	245.75
52	25306	2.91	245.75
52	26704	3.01	245.75
52	28090	3.11	245.75
52	29476	3.21	245.75
52	30862	3.31	245.75
52	32248	3.41	245.75
52	33634	3.51	245.75
52	35020	3.61	245.75
52	36406	3.71	245.75
52	37792	3.81	245.75
52	39178	3.91	245.75
52	40576	4.01	245.75
52	41962	4.11	245.75
52	43348	4.21	245.75
52	44734	4.31	245.75
52	46120	4.41	245.75
52	47506	4.51	245.75
52	48892	4.61	245.75
52	50278	4.71	245.75
52	51664	4.81	245.75
52	53050	4.91	245.75
52	54451	5.01	245.75
52	55837	5.11	245.75
52	57223	5.21	245.75
52	58609	5.31	245.75
52	59995	5.41	245.75
52	61381	5.51	245.75
52	62767	5.61	245.75
52	64153	5.71	245.75
52	65539	5.81	245.75
52	66925	5.91	245.75
52	68323	6.01	245.75
52	69709	6.11	245.75
52	71095	6.21	245.75
52	72481	6.31	245.75
52	73867	6.41	245.75
52	75253	6.51	245.75
52	76639	6.61	245.75
52	78025	6.71	245.75
52	79411	6.81	245.75
52	80797	6.91	245.75
52	82195	7.01	245.75
52	83581	7.11	245.75
52	84967	7.21	245.75
52	86353	7.31	245.75
52	87739	7.41	245.75
52	89125	7.51	245.75
52	90511	7.61	245.75
52	91897	7.71	245.75
52	93283	7.81	245.75
52	94669	7.91	245.75
52	96067	8.01	245.75
52	97453	8.11	245.75
52	98839	8.21	245.75
52	100225	8.31	245.75
52	101611	8.41	245.75
52	102997	8.51	245.75
52	104383	8.61	245.75
52	105769	8.71	245.75
52	107155	8.81	245.75
52	108541	8.91	245.75
52	109939	9.01	245.75
52	111325	9.11	245.75
52	112711	9.21	245.75
52	114097	9.31	245.75
52	115483	9.41	245.75
52	116869	9.51	245.75
51	335	1.11	7.6002
51	1723	1.21	10.3782
51	3110	1.31	13.1562
51	4498	1.41	15.9342
51	5885	1.51	18.7123
51	7272	1.61	21.4903
51	8658	1.71	24.2683
51	10045	1.81	27.0464
51	11431	1.91	29.8244
51	12832	2.01	32.6024
51	14218	2.11	35.3805
51	15604	2.21	38.1585
51	16990	2.31	40.9365
51	18376	2.41	43.7145
51	19762	2.51	46.4925
51	21148	2.61	49.2705
51	22534	2.71	52.0484
51	23920	2.81	54.8264
51	25306	2.91	57.6043
51	26704	3.01	60.3822
51	28090	3.11	63.16
51	29476	3.21	65.9379
51	30862	3.31	68.7157
51	32248	3.41	71.4935
51	33634	3.51	74.2713
51	35020	3.61	77.0491
51	36406	3.71	79.8268
51	37792	3.81	82.6045
51	39178	3.91	85.3823
51	40576	4.01	88.16
51	41962	4.11	90.9377
51	43348	4.21	93.7154
51	44734	4.31	96.4931
51	46120	4.41	99.2708
51	47506	4.51	102.049
51	48892	4.61	104.826
51	50278	4.71	107.604
51	51664	4.81	110.382
51	53050	4.91	113.159
51	54451	5.01	115.937
51	55837	5.11	118.715
51	57223	5.21	121.493
51	58609	5.31	124.27
51	59995	5.41	127.048
51	61381	5.51	129.826
51	62767	5.61	132.604
51	64153	5.71	135.381
51	65539	5.81	138.158
51	66925	5.91	140.934
51	68323	6.01	143.709
51	69709	6.11	146.48
51	71095	6.21	149.247
51	72481	6.31	152.005
51	73867	6.41	154.752
51	75253	6.51	157.481
51	76639	6.61	160.188
51	78025	6.71	162.864
51	79411	6.81	165.501
51	80797	6.91	168.091
51	82195	7.01	170.622
51	83581	7.11	173.085
51	84967	7.21	175.471
51	86353	7.31	177.771
51	87739	7.41	179.98
51	89125	7.51	182.1
51	90511	7.61	184.129
51	91897	7.71	186.069
51	93283	7.81	187.919
51	94669	7.91	189.678
51	96067	8.01	191.348
51	97453	8.11	192.927
51	98839	8.21	194.417
51	100225	8.31	195.816
51	101611	8.41	197.126
51	102997	8.51	198.346
51	104383	8.61	199.475
51	105769	8.71	200.515
51	107155	8.81	201.464
51	108541	8.91	202.324
51	109939	9.01	203.093
51	111325	9.11	203.773
51	112711	9.21	204.363
51	114097	9.31	204.862
51	115483	9.41	205.272
51	116869	9.51	205.591
50	335	1.11	27.78
50	1723	1.21	27.7801
50	3110	1.31	27.7801
50	4498	1.41	27.7802
50	5885	1.51	27.7803
50	7272	1.61	27.7804
50	8658	1.71	27.7804
50	10045	1.81	27.7804
50	11431	1.91	27.7804
50	12832	2.01	27.7804
50	14218	2.11	27.7803
50	15604	2.21	27.7802
50	16990	2.31	27.7801
50	18376	2.41	27.78
50	19762	2.51	27.7798
50	21148	2.61	27.7796
50	22534	2.71	27.7794
50	23920	2.81	27.7792
50	25306	2.91	27.779
50	26704	3.01	27.7788
50	28090	3.11	27.7785
50	29476	3.21	27.7783
50	30862	3.31	27.7781
50	32248	3.41	27.7779
50	33634	3.51	27.7778
50	35020	3.61	27.7776
50	36406	3.71	27.7775
50	37792	3.81	27.7773
50	39178	3.91	27.7772
50	40576	4.01	27.7772
50	41962	4.11	27.7771
50	43348	4.21	27.7771
50	44734	4.31	27.777
50	46120	4.41	27.777
50	47506	4.51	27.7771
50	48892	4.61	27.7771
50	50278	4.71	27.7771
50	51664	4.81	27.7772
50	53050	4.91	27.7773
50	54451	5.01	27.7773
50	55837	5.11	27.7774
50	57223	5.21	27.7775
50	58609	5.31	27.7775
50	59995	5.41	27.7775
50	61381	5.51	27.7773
50	62767	5.61	27.7764
50	64153	5.71	27.7739
50	65539	5.81	27.768
50	66925	5.91	27.7557
50	68323	6.01	27.7327
50	69709	6.11	27.6932
50	71095	6.21	27.6292
50	72481	6.31	27.5316
50	73867	6.41	27.3897
50	75253	6.51	27.192
50	76639	6.61	26.9267
50	78025	6.71	26.5827
50	79411	6.81	26.1499
50	80797	6.91	25.6208
50	82195	7.01	24.9907
50	83581	7.11	24.2609
50	84967	7.21	23.4383
50	86353	7.31	22.5458
50	87739	7.41	21.6458
50	89125	7.51	20.7458
50	90511	7.61	19.8458
50	91897	7.71	18.9458
50	93283	7.81	18.0458
50	94669	7.91	17.1458
50	96067	8.01	16.2458
50	97453	8.11	15.3458
50	98839	8.21	14.4458
50	100225	8.31	13.5458
50	101611	8.41	12.6458
50	102997	8.51	11.7458
50	104383	8.61	10.8458
50	105769	8.71	9.94577
50	107155	8.81	9.04577
50	108541	8.91	8.14577
50	109939	9.01	7.24577
50	111325	9.11	6.34577
50	112711	9.21	5.44577
50	114097	9.31	4.54577
50	115483	9.41	3.64577
50	116869	9.51	2.74577
48	335	1.11	-2.77881e-05
48	1723	1.21	-0.000108425
48	3110	1.31	-0.000227467
48	4498	1.41	-0.00037075
48	5885	1.51	-0.000525267
48	7272	1.61	-0.000679818
48	8658	1.71	-0.000825411
48	10045	1.81	-0.000955426
48	11431	1.91	-0.00106556
48	12832	2.01	-0.0011536
48	14218	2.11	-0.00121909
48	15604	2.21	-0.00126289
48	16990	2.31	-0.00128679
48	18376	2.41	-0.00129303
48	19762	2.51	-0.00128405
48	21148	2.61	-0.00126215
48	22534	2.71	-0.00122934
48	23920	2.81	-0.00118725
48	25306	2.91	-0.00113715
48	26704	3.01	-0.00107998
48	28090	3.11	-0.00101649
48	29476	3.21	-0.000947322
48	30862	3.31	-0.000873187
48	32248	3.41	-0.000794944
48	33634	3.51	-0.00071369
48	35020	3.61	-0.0006308
48	36406	3.71	-0.000547922
48	37792	3.81	-0.000466928
48	39178	3.91	-0.000389833
48	40576	4.01	-0.000318689
48	41962	4.11	-0.000255457
48	43348	4.21	-0.000201878
48	44734	4.31	-0.000159361
48	46120	4.41	-0.000128881
48	47506	4.51	-0.000110905
48	48892	4.61	-0.000105363
48	50278	4.71	-0.00011164
48	51664	4.81	-0.000128613
48	53050	4.91	-0.000154717
48	54451	5.01	-0.000188037
48	55837	5.11	-0.0002283
48	57223	5.21	-0.000344462
48	58609	5.31	-0.00100585
48	59995	5.41	-0.00364571
48	61381	5.51	-0.0111959
48	62767	5.61	-0.0283786
48	64153	5.71	-0.0616375
48	65539	5.81	-0.118683
48	66925	5.91	-0.207706
48	68323	6.01	-0.336371
48	69709	6.11	-0.510728
48	71095	6.21	-0.734193
48	72481	6.31	-1.00675
48	73867	6.41	-1.32443
48	75253	6.51	-1.67926
48	76639	6.61	-2.05947
48	78025	6.71	-2.45023
48	79411	6.81	-2.8346
48	80797	6.91	-3.19105
48	82195	7.01	-3.46094
48	83581	7.11	-3.63114
48	84967	7.21	-3.70861
48	86353	7.31	-3.71605
48	87739	7.41	-3.71605
48	89125	7.51	-3.71605
48	90511	7.61	-3.71605
48	91897	7.71	-3.71605
48	93283	7.81	-3.71605
48	94669	7.91	-3.71605
48	96067	8.01	-3.71605
48	97453	8.11	-3.71605
48	98839	8.21	-3.71516
48	100225	8.31	-3.70738
48	101611	8.41	-3.68635
48	102997	8.51	-3.64779
48	104383	8.61	-3.58949
48	105769	8.71	-3.51111
48	107155	8.81	-3.4139
48	108541	8.91	-3.30032
48	109939	9.01	-3.17367
48	111325	9.11	-3.03759
48	112711	9.21	-2.89445
48	114097	9.31	-2.74311
48	115483	9.41	-2.56944
48	116869	9.51	0
47	335	1.11	10.34
47	1723	1.21	10.34
47	3110	1.31	10.34
47	4498	1.41	10.3399
47	5885	1.51	10.3399
47	7272	1.61	10.3398
47	8658	1.71	10.3398
47	10045	1.81	10.3397
47	11431	1.91	10.3396
47	12832	2.01	10.3395
47	14218	2.11	10.3393
47	15604	2.21	10.3392
47	16990	2.31	10.3391
47	18376	2.41	10.339
47	19762	2.51	10.3388
47	21148	2.61	10.3387
47	22534	2.71	10.3386
47	23920	2.81	10.3385
47	25306	2.91	10.3383
47	26704	3.01	10.3382
47	28090	3.11	10.3381
47	29476	3.21	10.338
47	30862	3.31	10.3379
47	32248	3.41	10.3379
47	33634	3.51	10.3378
47	35020	3.61	10.3377
47	36406	3.71	10.3377
47	37792	3.81	10.3376
47	39178	3.91	10.3376
47	40576	4.01	10.3375
47	41962	4.11	10.3375
47	43348	4.21	10.3375
47	44734	4.31	10.3375
47	46120	4.41	10.3374
47	47506	4.51	10.3374
47	48892	4.61	10.3374
47	50278	4.71	10.3374
47	51664	4.81	10.3374
47	53050	4.91	10.3374
47	54451	5.01	10.3374
47	55837	5.11	10.3373
47	57223	5.21	10.3373
47	58609	5.31	10.3373
47	59995	5.41	10.3371
47	61381	5.51	10.3364
47	62767	5.61	10.3345
47	64153	5.71	10.3302
47	65539	5.81	10.3214
47	66925	5.91	10.3053
47	68323	6.01	10.2785
47	69709	6.11	10.2365
47	71095	6.21	10.1747
47	72481	6.31	10.0881
47	73867	6.41	9.97184
47	75253	6.51	9.82192
47	76639	6.61	9.63513
47	78025	6.71	9.40967
47	79411	6.81	9.1453
47	80797	6.91	8.8436
47	82195	7.01	8.51017
47	83581	7.11	8.15476
47	84967	7.21	7.78705
47	86353	7.31	7.41556
47	87739	7.41	7.04395
47	89125	7.51	6.67234
47	90511	7.61	6.30074
47	91897	7.71	5.92913
47	93283	7.81	5.55753
47	94669	7.91	5.18592
47	96067	8.01	4.81432
47	97453	8.11	4.44271
47	98839	8.21	4.07113
47	100225	8.31	3.69991
47	101611	8.41	3.3301
47	102997	8.51	2.96323
47	104383	8.61	2.6012
47	105769	8.71	2.24601
47	107155	8.81	1.89961
47	108541	8.91	1.56378
47	109939	9.01	1.23999
47	111325	9.11	0.92936
47	112711	9.21	0.632702
47	114097	9.31	0.350739
47	115483	9.41	0.0847836
47	116869	9.51	0
49	335	1.11	10
49	1723	1.21	10
49	3110	1.31	10
49	4498	1.41	10
49	5885	1.51	10
49	7272	1.61	10
49	8658	1.71	10
49	10045	1.81	10
49	11431	1.91	10
49	12832	2.01	10
49	14218	2.11	10
49	15604	2.21	10
49	16990	2.31	10
49	18376	2.41	10
49	19762	2.51	10
49	21148	2.61	10
49	22534	2.71	10
49	23920	2.81	10
49	25306	2.91	10
49	26704	3.01	10
49	28090	3.11	10
49	29476	3.21	10
49	30862	3.31	10
49	32248	3.41	10
49	33634	3.51	10
49	35020	3.61	10
49	36406	3.71	10
49	37792	3.81	10
49	39178	3.91	10
49	40576	4.01	10
49	41962	4.11	10
49	43348	4.21	10
49	44734	4.31	10
49	46120	4.41	10
49	47506	4.51	10
49	48892	4.61	10
49	50278	4.71	10
49	51664	4.81	10
49	53050	4.91	10
49	54451	5.01	10
49	55837	5.11	10
49	57223	5.21	10
49	58609	5.31	10
49	59995	5.41	10
49	61381	5.51	10
49	62767	5.61	10
49	64153	5.71	10
49	65539	5.81	10
49	66925	5.91	10
49	68323	6.01	10
49	69709	6.11	10
49	71095	6.21	10
49	72481	6.31	10
49	73867	6.41	10
49	75253	6.51	10
49	76639	6.61	10
49	78025	6.71	10
49	79411	6.81	10
49	80797	6.91	10
49	82195	7.01	10
49	83581	7.11	10
49	84967	7.21	10
49	86353	7.31	10
49	87739	7.41	10
49	89125	7.51	10
49	90511	7.61	10
49	91897	7.71	10
49	93283	7.81	10
49	94669	7.91	10
49	96067	8.01	10
49	97453	8.11	10
49	98839	8.21	10
49	100225	8.31	10
49	101611	8.41	10
49	102997	8.51	10
49	104383	8.61	10
49	105769	8.71	10
49	107155	8.81	10
49	108541	8.91	10
49	109939	9.01	10
49	111325	9.11	10
49	112711	9.21	10
49	114097	9.31	10
49	115483	9.41	10
49	116869	9.51	10
61	2118	1.243242380341	0.10001086881
61	3506	1.343240249145	0.099997868804
61	4894	1.443238117944	0.099997868799
61	6280	1.543235986734	0.09999786879
61	7667	1.643233855515	0.099997868781
61	9054	1.743231724292	0.099997868777
61	10440	1.843242593063	0.100010868771
61	11827	1.943240461824	0.099997868761
61	13227	2.043238330579	0.099997868755
61	14613	2.143236199327	0.099997868748
61	15999	2.243234068067	0.09999786874
61	17385	2.343231936801	0.099997868734
61	18771	2.443242805527	0.100010868726
61	20157	2.543240674247	0.09999786872
61	21543	2.64323854296	0.099997868713
61	22929	2.743236411664	0.099997868704
61	24315	2.843234280364	0.0999978687
61	25701	2.943232149056	0.099997868692
61	27099	3.043243017745	0.100010868689
61	28485	3.143240886431	0.099997868686
61	29871	3.243238755108	0.099997868677
61	31257	3.343236623779	0.099997868671
61	32643	3.443234492446	0.099997868667
61	34029	3.543232361108	0.099997868662
61	35415	3.643230229766	0.099997868658
61	36801	3.743241098421	0.100010868655
61	38187	3.843238967073	0.099997868652
61	39573	3.943236835724	0.099997868651
61	40971	4.043234704369	0.099997868645
61	42357	4.14323257301	0.099997868641
61	43743	4.243230441648	0.099997868638
61	45129	4.343241310284	0.100010868636
61	46515	4.443239178916	0.099997868632
61	47901	4.543237047545	0.099997868629
61	49287	4.643234916171	0.099997868626
61	50673	4.743232784795	0.099997868624
61	52059	4.843230653414	0.099997868619
61	53445	4.943241522031	0.100010868617
61	54846	5.043239390644	0.099997868613
61	56232	5.143237259211	0.099997868567
61	57618	5.243235127571	0.09999786836
61	59004	5.343232995426	0.099997867855
61	60390	5.443230862368	0.099997866942
61	61776	5.543241727894	0.100010865526
61	63162	5.643239591423	0.099997863529
61	64548	5.743237452318	0.099997860895
61	65934	5.843235309896	0.099997857578
61	67320	5.943233163457	0.099997853561
61	68718	6.043231012293	0.099997848836
61	70104	6.143241855713	0.10001084342
61	71490	6.243239693065	0.099997837352
61	72876	6.343237523759	0.099997830694
61	74262	6.443235347285	0.099997823526
61	75648	6.543233163241	0.099997815956
61	77034	6.643230969464	0.099997806223
61	78420	6.743241767823	0.100010798359
61	79806	6.843239558351	0.099997790528
61	81192	6.943237341256	0.099997782905
61	82590	7.04323511692	0.099997775664
61	83976	7.14323288587	0.09999776895
61	85362	7.243230648772	0.099997762902
61	86748	7.343241406394	0.100010757622
61	88134	7.443239159548	0.099997753154
61	89520	7.54323690905	0.099997749502
61	90906	7.643234655735	0.099997746685
61	92292	7.743232400447	0.099997744712
61	93678	7.843230144045	0.099997743598
61	95064	7.943240887399	0.100010743354
61	96462	8.043238631394	0.099997743995
61	97842	8.143236376918	0.099997745524
61	99228	8.243234124869	0.099997747951
61	100614	8.343231876149	0.09999775128
61	102000	8.44324263166	0.100010755511
61	103386	8.54324039229	0.09999776063
61	104772	8.643238158915	0.099997766625
61	106152	8.743235932387	0.099997773472
61	107538	8.84323371354	0.099997781153
61	108924	8.943231503186	0.099997789646
61	110322	9.043242302202	0.100010799016
61	111708	9.143240111833	0.099997809631
61	113088	9.243237933403	0.09999782157
61	114474	9.343235768215	0.099997834812
61	115860	9.443233617563	0.099997849348
60	2050	1.229830380342	0.09999786881
60	3438	1.329828249145	0.099997868803
60	4826	1.429826117944	0.099997868799
60	6212	1.529823986734	0.09999786879
60	7599	1.629821855516	0.099997868782
60	8985	1.729832724292	0.100010868776
60	10372	1.829830593063	0.099997868771
60	11758	1.929828461824	0.099997868761
60	13159	2.029826330579	0.099997868755
60	14545	2.129824199327	0.099997868748
60	15931	2.229822068067	0.09999786874
60	17317	2.329832936801	0.100010868734
60	18703	2.429830805527	0.099997868726
60	20089	2.529828674247	0.09999786872
60	21475	2.629826542959	0.099997868712
60	22861	2.729824411665	0.099997868706
60	24247	2.829822280363	0.099997868698
60	25633	2.929833149056	0.100010868693
60	27031	3.029831017745	0.099997868689
60	28417	3.129828886431	0.099997868686
60	29803	3.229826755108	0.099997868677
60	31189	3.329824623779	0.099997868671
60	32575	3.429822492446	0.099997868667
60	33961	3.529820361107	0.099997868661
60	35347	3.629831229766	0.100010868659
60	36733	3.729829098421	0.099997868655
60	38119	3.829826967073	0.099997868652
60	39505	3.929824835724	0.099997868651
60	40903	4.029822704369	0.099997868645
60	42289	4.12982057301	0.099997868641
60	43675	4.229831441648	0.100010868638
60	45061	4.329829310283	0.099997868635
60	46447	4.429827178916	0.099997868633
60	47833	4.529825047545	0.099997868629
60	49219	4.629822916172	0.099997868627
60	50605	4.729820784795	0.099997868623
60	51991	4.829831653414	0.100010868619
60	53377	4.929829522031	0.099997868617
60	54778	5.029827390644	0.099997868613
60	56164	5.129825259211	0.099997868567
60	57550	5.229823127571	0.09999786836
60	58936	5.329820995426	0.099997867855
60	60322	5.429831862368	0.100010866942
60	61708	5.529829727895	0.099997865527
60	63094	5.629827591426	0.099997863531
60	64480	5.729825452323	0.099997860897
60	65866	5.829823309906	0.099997857583
60	67252	5.929821163473	0.099997853567
60	68650	6.029832012319	0.100010848846
60	70036	6.129829855751	0.099997843432
60	71422	6.229827693119	0.099997837368
60	72808	6.329825523832	0.099997830713
60	74194	6.42982334738	0.099997823548
60	75580	6.52982116336	0.09999781598
60	76966	6.629831969609	0.100010806249
60	78352	6.729829767994	0.099997798385
60	79738	6.829827558548	0.099997790554
60	81124	6.929825341474	0.099997782926
60	82522	7.029823117155	0.099997775681
60	83903	7.129820886114	0.099997768959
60	85289	7.229831649019	0.100010762905
60	86675	7.329829406642	0.099997757623
60	88061	7.429827159796	0.099997753154
60	89447	7.529824909299	0.099997749503
60	90833	7.629822655983	0.099997746684
60	92219	7.729820400695	0.099997744712
60	93605	7.829831144292	0.100010743597
60	94991	7.929828887647	0.099997743355
60	96389	8.029826631641	0.099997743994
60	97775	8.129824377166	0.099997745525
60	99161	8.229822125116	0.09999774795
60	100547	8.329832876396	0.10001075128
60	101933	8.429830631904	0.099997755508
60	103319	8.529828392532	0.099997760628
60	104705	8.629826159153	0.099997766621
60	106091	8.72982393262	0.099997773467
60	107477	8.829821713766	0.099997781146
60	108863	8.929832503404	0.100010789638
60	110255	9.02983030241	0.099997799006
60	111641	9.129828112033	0.099997809623
60	113027	9.229825933593	0.09999782156
60	114413	9.329823768395	0.099997834802
60	115799	9.429821617731	0.099997849336
59	2118	1.243242380341	10
59	3506	1.343240249145	10
59	4894	1.443238117944	10
59	6280	1.543235986734	10
59	7667	1.643233855515	10
59	9054	1.743231724292	10
59	10440	1.843242593063	10
59	11827	1.943240461824	10
59	13227	2.043238330579	10
59	14613	2.143236199327	10
59	15999	2.243234068067	10
59	17385	2.343231936801	10
59	18771	2.443242805527	10
59	20157	2.543240674247	10
59	21543	2.64323854296	10
59	22929	2.743236411664	10
59	24315	2.843234280364	10
59	25701	2.943232149056	10
59	27099	3.043243017745	10
59	28485	3.143240886431	10
59	29871	3.243238755108	10
59	31257	3.343236623779	10
59	32643	3.443234492446	10
59	34029	3.543232361108	10
59	35415	3.643230229766	10
59	36801	3.743241098421	10
59	38187	3.843238967073	10
59	39573	3.943236835724	10
59	40971	4.043234704369	10
59	42357	4.14323257301	10
59	43743	4.243230441648	10
59	45129	4.343241310284	10
59	46515	4.443239178916	10
59	47901	4.543237047545	10
59	49287	4.643234916171	10
59	50673	4.743232784795	10
59	52059	4.843230653414	10
59	53445	4.943241522031	10
59	54846	5.043239390644	10
59	56232	5.143237259211	10
59	57618	5.243235127571	10
59	59004	5.343232995426	10
59	60390	5.443230862368	10
59	61776	5.543241727894	10
59	63162	5.643239591423	10
59	64548	5.743237452318	10
59	65934	5.843235309896	10
59	67320	5.943233163457	10
59	68718	6.043231012293	10
59	70104	6.143241855713	10
59	71490	6.243239693065	10
59	72876	6.343237523759	10
59	74262	6.443235347285	10
59	75648	6.543233163241	10
59	77034	6.643230969464	10
59	78420	6.743241767823	10
59	79806	6.843239558351	10
59	81192	6.943237341256	10
59	82590	7.04323511692	10
59	83976	7.14323288587	10
59	85362	7.243230648772	10
59	86748	7.343241406394	10
59	88134	7.443239159548	10
59	89520	7.54323690905	10
59	90906	7.643234655735	10
59	92292	7.743232400447	10
59	93678	7.843230144045	10
59	95064	7.943240887399	10
59	96462	8.043238631394	10
59	97842	8.143236376918	10
59	99228	8.243234124869	10
59	100614	8.343231876149	10
59	102000	8.44324263166	10
59	103386	8.54324039229	10
59	104772	8.643238158915	10
59	106152	8.743235932387	10
59	107538	8.84323371354	10
59	108924	8.943231503186	10
59	110322	9.043242302202	10
59	111708	9.143240111833	10
59	113088	9.243237933403	10
59	114474	9.343235768215	10
59	115860	9.443233617563	10
58	2050	1.229830380342	10
58	3438	1.329828249145	10
58	4826	1.429826117944	10
58	6212	1.529823986734	10
58	7599	1.629821855516	10
58	8985	1.729832724292	10
58	10372	1.829830593063	10
58	11758	1.929828461824	10
58	13159	2.029826330579	10
58	14545	2.129824199327	10
58	15931	2.229822068067	10
58	17317	2.329832936801	10
58	18703	2.429830805527	10
58	20089	2.529828674247	10
58	21475	2.629826542959	10
58	22861	2.729824411665	10
58	24247	2.829822280363	10
58	25633	2.929833149056	10
58	27031	3.029831017745	10
58	28417	3.129828886431	10
58	29803	3.229826755108	10
58	31189	3.329824623779	10
58	32575	3.429822492446	10
58	33961	3.529820361107	10
58	35347	3.629831229766	10
58	36733	3.729829098421	10
58	38119	3.829826967073	10
58	39505	3.929824835724	10
58	40903	4.029822704369	10
58	42289	4.12982057301	10
58	43675	4.229831441648	10
58	45061	4.329829310283	10
58	46447	4.429827178916	10
58	47833	4.529825047545	10
58	49219	4.629822916172	10
58	50605	4.729820784795	10
58	51991	4.829831653414	10
58	53377	4.929829522031	10
58	54778	5.029827390644	10
58	56164	5.129825259211	10
58	57550	5.229823127571	10
58	58936	5.329820995426	10
58	60322	5.429831862368	10
58	61708	5.529829727895	10
58	63094	5.629827591426	10
58	64480	5.729825452323	10
58	65866	5.829823309906	10
58	67252	5.929821163473	10
58	68650	6.029832012319	10
58	70036	6.129829855751	10
58	71422	6.229827693119	10
58	72808	6.329825523832	10
58	74194	6.42982334738	10
58	75580	6.52982116336	10
58	76966	6.629831969609	10
58	78352	6.729829767994	10
58	79738	6.829827558548	10
58	81124	6.929825341474	10
58	82522	7.029823117155	10
58	83903	7.129820886114	10
58	85289	7.229831649019	10
58	86675	7.329829406642	10
58	88061	7.429827159796	10
58	89447	7.529824909299	10
58	90833	7.629822655983	10
58	92219	7.729820400695	10
58	93605	7.829831144292	10
58	94991	7.929828887647	10
58	96389	8.029826631641	10
58	97775	8.129824377166	10
58	99161	8.229822125116	10
58	100547	8.329832876396	10
58	101933	8.429830631904	10
58	103319	8.529828392532	10
58	104705	8.629826159153	10
58	106091	8.72982393262	10
58	107477	8.829821713766	10
58	108863	8.929832503404	10
58	110255	9.02983030241	10
58	111641	9.129828112033	10
58	113027	9.229825933593	10
58	114413	9.329823768395	10
58	115799	9.429821617731	10
57	12606	2	0
57	26480	3	0
57	40352	4	0
57	54227	5	0
57	68099	6	0
57	81971	7	0
57	95843	8	0
57	109715	9	0
56	12606	2	0.062105
56	26480	3	0.06905
56	40352	4	0.06905
56	54227	5	0.06905
56	68099	6	0.06905
56	81971	7	0.06905
56	95843	8	0.06905
56	109715	9	0.06905
55	12606	2	10
55	26480	3	10
55	40352	4	10
55	54227	5	10
55	68099	6	10
55	81971	7	10
55	95843	8	10
55	109715	9	10
77	336	1.11	0.00192379
77	1724	1.21	0.00166409
77	3111	1.31	0.00126616
77	4499	1.41	0.000777448
77	5886	1.51	0.000242249
77	7273	1.61	-0.000300693
77	8659	1.71	-0.000819714
77	10046	1.81	-0.00129095
77	11432	1.91	-0.0016983
77	12833	2.01	-0.00203284
77	14219	2.11	-0.00229168
77	15605	2.21	-0.0024767
77	16991	2.31	-0.00259307
77	18377	2.41	-0.0026479
77	19763	2.51	-0.00264903
77	21149	2.61	-0.00260412
77	22535	2.71	-0.00251998
77	23921	2.81	-0.00240225
77	25307	2.91	-0.00225536
77	26705	3.01	-0.00208266
77	28091	3.11	-0.00188679
77	29477	3.21	-0.00167006
77	30863	3.31	-0.00143491
77	32249	3.41	-0.00118428
77	33635	3.51	-0.000921867
77	35021	3.61	-0.000652319
77	36407	3.71	-0.00038121
77	37793	3.81	-0.000114913
77	39179	3.91	0.000139664
77	40577	4.01	0.000375434
77	41963	4.11	0.000585553
77	43349	4.21	0.000763847
77	44735	4.31	0.000905224
77	46121	4.41	0.00100602
77	47507	4.51	0.00106427
77	48893	4.61	0.00107981
77	50279	4.71	0.00105439
77	51665	4.81	0.000991471
77	53051	4.91	0.000896109
77	54452	5.01	0.000774607
77	55838	5.11	0.000630544
77	57224	5.21	0.00028792
77	58610	5.31	-0.00161224
77	59996	5.41	-0.0094677
77	61382	5.51	-0.0325763
77	62768	5.61	-0.0862519
77	64154	5.71	-0.19176
77	65540	5.81	-0.37495
77	66926	5.91	-0.663732
77	68324	6.01	-1.08474
77	69710	6.11	-1.65967
77	71096	6.21	-2.40175
77	72482	6.31	-3.31287
77	73868	6.41	-4.38175
77	75254	6.51	-5.58333
77	76640	6.61	-6.87951
77	78026	6.71	-8.22127
77	79412	6.81	-9.55177
77	80798	6.91	-10.8043
77	82196	7.01	-11.786
77	83582	7.11	-12.4316
77	84968	7.21	-12.7602
77	86354	7.31	-12.8328
77	87740	7.41	-12.8667
77	89126	7.51	-12.9006
77	90512	7.61	-12.9345
77	91898	7.71	-12.9683
77	93284	7.81	-13.0022
77	94670	7.91	-13.0361
77	96068	8.01	-13.0699
77	97454	8.11	-13.1038
77	98840	8.21	-13.1356
77	100226	8.31	-13.1468
77	101612	8.41	-13.1152
77	102998	8.51	-13.0254
77	104384	8.61	-12.8686
77	105770	8.71	-12.6426
77	107156	8.81	-12.3503
77	108542	8.91	-11.9991
77	109940	9.01	-11.599
77	111326	9.11	-11.1621
77	112712	9.21	-10.6966
77	114098	9.31	-10.2
77	115484	9.41	-9.63284
77	116870	9.51	-283.577
76	336	1.11	0.000321619
76	1724	1.21	0.000585408
76	3111	1.31	0.000740381
76	4499	1.41	0.000786108
76	5886	1.51	0.000730479
76	7273	1.61	0.000587387
76	8659	1.71	0.000374488
76	10046	1.81	0.000111164
76	11432	1.91	-0.000183194
76	12833	2.01	-0.000490525
76	14219	2.11	-0.000795047
76	15605	2.21	-0.0010838
76	16991	2.31	-0.00134683
76	18377	2.41	-0.00157714
76	19763	2.51	-0.00177035
76	21149	2.61	-0.00192426
76	22535	2.71	-0.00203837
76	23921	2.81	-0.00211337
76	25307	2.91	-0.00215072
76	26705	3.01	-0.00215231
76	28091	3.11	-0.00212019
76	29477	3.21	-0.0020565
76	30863	3.31	-0.0019634
76	32249	3.41	-0.00184316
76	33635	3.51	-0.00169823
76	35021	3.61	-0.0015314
76	36407	3.71	-0.00134587
76	37793	3.81	-0.00114535
76	39179	3.91	-0.000934104
76	40577	4.01	-0.000716885
76	41963	4.11	-0.000498846
76	43349	4.21	-0.000285384
76	44735	4.31	-8.19316e-05
76	46121	4.41	0.000106282
76	47507	4.51	0.000274478
76	48893	4.61	0.000418565
76	50279	4.71	0.000535352
76	51665	4.81	0.000622713
76	53051	4.91	0.000679691
76	54452	5.01	0.000706541
76	55838	5.11	0.000704562
76	57224	5.21	0.000663913
76	58610	5.31	0.000447399
76	59996	5.41	-0.000581167
76	61382	5.51	-0.00420889
76	62768	5.61	-0.0141759
76	64154	5.71	-0.0369176
76	65540	5.81	-0.0820295
76	66926	5.91	-0.162281
76	68324	6.01	-0.293084
76	69710	6.11	-0.491419
76	71096	6.21	-0.774298
76	72482	6.31	-1.15694
76	73868	6.41	-1.65084
76	75254	6.51	-2.262
76	76640	6.61	-2.98951
76	78026	6.71	-3.8246
76	79412	6.81	-4.75045
76	80798	6.91	-5.74241
76	82196	7.01	-6.75664
76	83582	7.11	-7.73069
76	84968	7.21	-8.61308
76	86354	7.31	-9
76	87740	7.41	-9
76	89126	7.51	-9
76	90512	7.61	-9
76	91898	7.71	-9
76	93284	7.81	-9
76	94670	7.91	-9
76	96068	8.01	-9
76	97454	8.11	-9
76	98840	8.21	-9
76	100226	8.31	-9
76	101612	8.41	-9
76	102998	8.51	-9
76	104384	8.61	-9
76	105770	8.71	-9
76	107156	8.81	-9
76	108542	8.91	-9
76	109940	9.01	-9
76	111326	9.11	-9
76	112712	9.21	-9
76	114098	9.31	-9
76	115484	9.41	-9
76	116870	9.51	-9
75	336	1.11	249.05
75	1724	1.21	249.05
75	3111	1.31	249.05
75	4499	1.41	249.05
75	5886	1.51	249.05
75	7273	1.61	249.05
75	8659	1.71	249.05
75	10046	1.81	249.05
75	11432	1.91	249.05
75	12833	2.01	249.05
75	14219	2.11	249.05
75	15605	2.21	249.05
75	16991	2.31	249.05
75	18377	2.41	249.05
75	19763	2.51	249.05
75	21149	2.61	249.05
75	22535	2.71	249.05
75	23921	2.81	249.05
75	25307	2.91	249.05
75	26705	3.01	249.05
75	28091	3.11	249.05
75	29477	3.21	249.05
75	30863	3.31	249.05
75	32249	3.41	249.05
75	33635	3.51	249.05
75	35021	3.61	249.05
75	36407	3.71	249.05
75	37793	3.81	249.05
75	39179	3.91	249.05
75	40577	4.01	249.05
75	41963	4.11	249.05
75	43349	4.21	249.05
75	44735	4.31	249.05
75	46121	4.41	249.05
75	47507	4.51	249.05
75	48893	4.61	249.05
75	50279	4.71	249.05
75	51665	4.81	249.05
75	53051	4.91	249.05
75	54452	5.01	249.05
75	55838	5.11	249.05
75	57224	5.21	249.05
75	58610	5.31	249.05
75	59996	5.41	249.05
75	61382	5.51	249.05
75	62768	5.61	249.05
75	64154	5.71	249.05
75	65540	5.81	249.05
75	66926	5.91	249.05
75	68324	6.01	249.05
75	69710	6.11	249.05
75	71096	6.21	249.05
75	72482	6.31	249.05
75	73868	6.41	249.05
75	75254	6.51	249.05
75	76640	6.61	249.05
75	78026	6.71	249.05
75	79412	6.81	249.05
75	80798	6.91	249.05
75	82196	7.01	249.05
75	83582	7.11	249.05
75	84968	7.21	249.05
75	86354	7.31	249.05
75	87740	7.41	249.05
75	89126	7.51	249.05
75	90512	7.61	249.05
75	91898	7.71	249.05
75	93284	7.81	249.05
75	94670	7.91	249.05
75	96068	8.01	249.05
75	97454	8.11	249.05
75	98840	8.21	249.05
75	100226	8.31	249.05
75	101612	8.41	249.05
75	102998	8.51	249.05
75	104384	8.61	249.05
75	105770	8.71	249.05
75	107156	8.81	249.05
75	108542	8.91	249.05
75	109940	9.01	249.05
75	111326	9.11	249.05
75	112712	9.21	249.05
75	114098	9.31	249.05
75	115484	9.41	249.05
75	116870	9.51	249.05
74	336	1.11	23.9102
74	1724	1.21	26.6882
74	3111	1.31	29.4662
74	4499	1.41	32.2442
74	5886	1.51	35.0223
74	7273	1.61	37.8003
74	8659	1.71	40.5783
74	10046	1.81	43.3564
74	11432	1.91	46.1344
74	12833	2.01	48.9124
74	14219	2.11	51.6905
74	15605	2.21	54.4685
74	16991	2.31	57.2465
74	18377	2.41	60.0245
74	19763	2.51	62.8025
74	21149	2.61	65.5805
74	22535	2.71	68.3584
74	23921	2.81	71.1364
74	25307	2.91	73.9143
74	26705	3.01	76.6922
74	28091	3.11	79.47
74	29477	3.21	82.2479
74	30863	3.31	85.0257
74	32249	3.41	87.8035
74	33635	3.51	90.5813
74	35021	3.61	93.3591
74	36407	3.71	96.1368
74	37793	3.81	98.9145
74	39179	3.91	101.692
74	40577	4.01	104.47
74	41963	4.11	107.248
74	43349	4.21	110.025
74	44735	4.31	112.803
74	46121	4.41	115.581
74	47507	4.51	118.359
74	48893	4.61	121.136
74	50279	4.71	123.914
74	51665	4.81	126.692
74	53051	4.91	129.469
74	54452	5.01	132.247
74	55838	5.11	135.025
74	57224	5.21	137.803
74	58610	5.31	140.58
74	59996	5.41	143.358
74	61382	5.51	146.136
74	62768	5.61	148.914
74	64154	5.71	151.691
74	65540	5.81	154.468
74	66926	5.91	157.244
74	68324	6.01	160.019
74	69710	6.11	162.79
74	71096	6.21	165.557
74	72482	6.31	168.315
74	73868	6.41	171.062
74	75254	6.51	173.791
74	76640	6.61	176.498
74	78026	6.71	179.174
74	79412	6.81	181.811
74	80798	6.91	184.401
74	82196	7.01	186.932
74	83582	7.11	189.395
74	84968	7.21	191.781
74	86354	7.31	194.081
74	87740	7.41	196.29
74	89126	7.51	198.41
74	90512	7.61	200.439
74	91898	7.71	202.379
74	93284	7.81	204.229
74	94670	7.91	205.988
74	96068	8.01	207.658
74	97454	8.11	209.237
74	98840	8.21	210.727
74	100226	8.31	212.126
74	101612	8.41	213.436
74	102998	8.51	214.656
74	104384	8.61	215.785
74	105770	8.71	216.825
74	107156	8.81	217.774
74	108542	8.91	218.634
74	109940	9.01	219.403
74	111326	9.11	220.083
74	112712	9.21	220.673
74	114098	9.31	221.172
74	115484	9.41	221.582
74	116870	9.51	221.901
73	336	1.11	27.78
73	1724	1.21	27.7801
73	3111	1.31	27.7801
73	4499	1.41	27.7802
73	5886	1.51	27.7803
73	7273	1.61	27.7804
73	8659	1.71	27.7804
73	10046	1.81	27.7804
73	11432	1.91	27.7804
73	12833	2.01	27.7804
73	14219	2.11	27.7803
73	15605	2.21	27.7802
73	16991	2.31	27.7801
73	18377	2.41	27.78
73	19763	2.51	27.7798
73	21149	2.61	27.7796
73	22535	2.71	27.7794
73	23921	2.81	27.7792
73	25307	2.91	27.779
73	26705	3.01	27.7788
73	28091	3.11	27.7785
73	29477	3.21	27.7783
73	30863	3.31	27.7781
73	32249	3.41	27.7779
73	33635	3.51	27.7778
73	35021	3.61	27.7776
73	36407	3.71	27.7775
73	37793	3.81	27.7773
73	39179	3.91	27.7772
73	40577	4.01	27.7772
73	41963	4.11	27.7771
73	43349	4.21	27.7771
73	44735	4.31	27.777
73	46121	4.41	27.777
73	47507	4.51	27.7771
73	48893	4.61	27.7771
73	50279	4.71	27.7771
73	51665	4.81	27.7772
73	53051	4.91	27.7773
73	54452	5.01	27.7773
73	55838	5.11	27.7774
73	57224	5.21	27.7775
73	58610	5.31	27.7775
73	59996	5.41	27.7775
73	61382	5.51	27.7773
73	62768	5.61	27.7764
73	64154	5.71	27.7739
73	65540	5.81	27.768
73	66926	5.91	27.7557
73	68324	6.01	27.7327
73	69710	6.11	27.6932
73	71096	6.21	27.6292
73	72482	6.31	27.5316
73	73868	6.41	27.3897
73	75254	6.51	27.192
73	76640	6.61	26.9267
73	78026	6.71	26.5827
73	79412	6.81	26.1499
73	80798	6.91	25.6208
73	82196	7.01	24.9907
73	83582	7.11	24.2609
73	84968	7.21	23.4383
73	86354	7.31	22.5458
73	87740	7.41	21.6458
73	89126	7.51	20.7458
73	90512	7.61	19.8458
73	91898	7.71	18.9458
73	93284	7.81	18.0458
73	94670	7.91	17.1458
73	96068	8.01	16.2458
73	97454	8.11	15.3458
73	98840	8.21	14.4458
73	100226	8.31	13.5458
73	101612	8.41	12.6458
73	102998	8.51	11.7458
73	104384	8.61	10.8458
73	105770	8.71	9.94577
73	107156	8.81	9.04577
73	108542	8.91	8.14577
73	109940	9.01	7.24577
73	111326	9.11	6.34577
73	112712	9.21	5.44577
73	114098	9.31	4.54577
73	115484	9.41	3.64577
73	116870	9.51	2.74577
71	336	1.11	-2.77881e-05
71	1724	1.21	-0.000108425
71	3111	1.31	-0.000227467
71	4499	1.41	-0.00037075
71	5886	1.51	-0.000525267
71	7273	1.61	-0.000679818
71	8659	1.71	-0.000825411
71	10046	1.81	-0.000955426
71	11432	1.91	-0.00106556
71	12833	2.01	-0.0011536
71	14219	2.11	-0.00121909
71	15605	2.21	-0.00126289
71	16991	2.31	-0.00128679
71	18377	2.41	-0.00129303
71	19763	2.51	-0.00128405
71	21149	2.61	-0.00126215
71	22535	2.71	-0.00122934
71	23921	2.81	-0.00118725
71	25307	2.91	-0.00113715
71	26705	3.01	-0.00107998
71	28091	3.11	-0.00101649
71	29477	3.21	-0.000947322
71	30863	3.31	-0.000873187
71	32249	3.41	-0.000794944
71	33635	3.51	-0.00071369
71	35021	3.61	-0.0006308
71	36407	3.71	-0.000547922
71	37793	3.81	-0.000466928
71	39179	3.91	-0.000389833
71	40577	4.01	-0.000318689
71	41963	4.11	-0.000255457
71	43349	4.21	-0.000201878
71	44735	4.31	-0.000159361
71	46121	4.41	-0.000128881
71	47507	4.51	-0.000110905
71	48893	4.61	-0.000105363
71	50279	4.71	-0.00011164
71	51665	4.81	-0.000128613
71	53051	4.91	-0.000154717
71	54452	5.01	-0.000188037
71	55838	5.11	-0.0002283
71	57224	5.21	-0.000344462
71	58610	5.31	-0.00100585
71	59996	5.41	-0.00364571
71	61382	5.51	-0.0111959
71	62768	5.61	-0.0283786
71	64154	5.71	-0.0616375
71	65540	5.81	-0.118683
71	66926	5.91	-0.207706
71	68324	6.01	-0.336371
71	69710	6.11	-0.510728
71	71096	6.21	-0.734193
71	72482	6.31	-1.00675
71	73868	6.41	-1.32443
71	75254	6.51	-1.67926
71	76640	6.61	-2.05947
71	78026	6.71	-2.45023
71	79412	6.81	-2.8346
71	80798	6.91	-3.19105
71	82196	7.01	-3.46094
71	83582	7.11	-3.63114
71	84968	7.21	-3.70861
71	86354	7.31	-3.71605
71	87740	7.41	-3.71605
71	89126	7.51	-3.71605
71	90512	7.61	-3.71605
71	91898	7.71	-3.71605
71	93284	7.81	-3.71605
71	94670	7.91	-3.71605
71	96068	8.01	-3.71605
71	97454	8.11	-3.71605
71	98840	8.21	-3.71516
71	100226	8.31	-3.70738
71	101612	8.41	-3.68635
71	102998	8.51	-3.64779
71	104384	8.61	-3.58949
71	105770	8.71	-3.51111
71	107156	8.81	-3.4139
71	108542	8.91	-3.30032
71	109940	9.01	-3.17367
71	111326	9.11	-3.03759
71	112712	9.21	-2.89445
71	114098	9.31	-2.74311
71	115484	9.41	-2.56944
71	116870	9.51	0
70	336	1.11	10.34
70	1724	1.21	10.34
70	3111	1.31	10.34
70	4499	1.41	10.3399
70	5886	1.51	10.3399
70	7273	1.61	10.3398
70	8659	1.71	10.3398
70	10046	1.81	10.3397
70	11432	1.91	10.3396
70	12833	2.01	10.3395
70	14219	2.11	10.3393
70	15605	2.21	10.3392
70	16991	2.31	10.3391
70	18377	2.41	10.339
70	19763	2.51	10.3388
70	21149	2.61	10.3387
70	22535	2.71	10.3386
70	23921	2.81	10.3385
70	25307	2.91	10.3383
70	26705	3.01	10.3382
70	28091	3.11	10.3381
70	29477	3.21	10.338
70	30863	3.31	10.3379
70	32249	3.41	10.3379
70	33635	3.51	10.3378
70	35021	3.61	10.3377
70	36407	3.71	10.3377
70	37793	3.81	10.3376
70	39179	3.91	10.3376
70	40577	4.01	10.3375
70	41963	4.11	10.3375
70	43349	4.21	10.3375
70	44735	4.31	10.3375
70	46121	4.41	10.3374
70	47507	4.51	10.3374
70	48893	4.61	10.3374
70	50279	4.71	10.3374
70	51665	4.81	10.3374
70	53051	4.91	10.3374
70	54452	5.01	10.3374
70	55838	5.11	10.3373
70	57224	5.21	10.3373
70	58610	5.31	10.3373
70	59996	5.41	10.3371
70	61382	5.51	10.3364
70	62768	5.61	10.3345
70	64154	5.71	10.3302
70	65540	5.81	10.3214
70	66926	5.91	10.3053
70	68324	6.01	10.2785
70	69710	6.11	10.2365
70	71096	6.21	10.1747
70	72482	6.31	10.0881
70	73868	6.41	9.97184
70	75254	6.51	9.82192
70	76640	6.61	9.63513
70	78026	6.71	9.40967
70	79412	6.81	9.1453
70	80798	6.91	8.8436
70	82196	7.01	8.51017
70	83582	7.11	8.15476
70	84968	7.21	7.78705
70	86354	7.31	7.41556
70	87740	7.41	7.04395
70	89126	7.51	6.67234
70	90512	7.61	6.30074
70	91898	7.71	5.92913
70	93284	7.81	5.55753
70	94670	7.91	5.18592
70	96068	8.01	4.81432
70	97454	8.11	4.44271
70	98840	8.21	4.07113
70	100226	8.31	3.69991
70	101612	8.41	3.3301
70	102998	8.51	2.96323
70	104384	8.61	2.6012
70	105770	8.71	2.24601
70	107156	8.81	1.89961
70	108542	8.91	1.56378
[...]
258	60004	5.41	130.388
258	61390	5.51	133.166
258	62776	5.61	135.943
258	64162	5.71	138.721
258	65548	5.81	141.498
258	66934	5.91	144.274
258	68332	6.01	147.049
258	69718	6.11	149.82
258	71104	6.21	152.587
258	72490	6.31	155.345
258	73876	6.41	158.092
258	75262	6.51	160.821
258	76648	6.61	163.528
258	78034	6.71	166.204
258	79420	6.81	168.841
258	80806	6.91	171.431
258	82204	7.01	173.962
258	83590	7.11	176.425
258	84976	7.21	178.811
258	86362	7.31	181.11
258	87748	7.41	183.32
258	89134	7.51	185.44
258	90520	7.61	187.469
258	91906	7.71	189.409
258	93292	7.81	191.258
258	94678	7.91	193.018
258	96076	8.01	194.688
258	97462	8.11	196.267
258	98848	8.21	197.757
258	100234	8.31	199.156
258	101620	8.41	200.466
258	103006	8.51	201.685
258	104392	8.61	202.815
258	105778	8.71	203.855
258	107164	8.81	204.804
258	108550	8.91	205.664
258	109948	9.01	206.433
258	111334	9.11	207.113
258	112720	9.21	207.702
258	114106	9.31	208.202
258	115492	9.41	208.612
258	116878	9.51	208.931
257	344	1.11	27.78
257	1732	1.21	27.78
257	3119	1.31	27.7799
257	4507	1.41	27.7799
257	5894	1.51	27.7798
257	7281	1.61	27.7798
257	8667	1.71	27.7798
257	10054	1.81	27.7798
257	11440	1.91	27.7798
257	12841	2.01	27.7798
257	14227	2.11	27.7799
257	15613	2.21	27.7799
257	16999	2.31	27.7799
257	18385	2.41	27.7799
257	19771	2.51	27.7799
257	21157	2.61	27.7798
257	22543	2.71	27.7797
257	23929	2.81	27.7796
257	25315	2.91	27.7795
257	26713	3.01	27.7793
257	28099	3.11	27.779
257	29485	3.21	27.7788
257	30871	3.31	27.7785
257	32257	3.41	27.7783
257	33643	3.51	27.778
257	35029	3.61	27.7778
257	36415	3.71	27.7775
257	37801	3.81	27.7773
257	39187	3.91	27.7772
257	40585	4.01	27.777
257	41971	4.11	27.7769
257	43357	4.21	27.7769
257	44743	4.31	27.7768
257	46129	4.41	27.7768
257	47515	4.51	27.7769
257	48901	4.61	27.7769
257	50287	4.71	27.777
257	51673	4.81	27.7771
257	53059	4.91	27.7772
257	54460	5.01	27.7773
257	55846	5.11	27.7774
257	57232	5.21	27.7775
257	58618	5.31	27.7776
257	60004	5.41	27.7776
257	61390	5.51	27.7774
257	62776	5.61	27.7765
257	64162	5.71	27.774
257	65548	5.81	27.768
257	66934	5.91	27.7558
257	68332	6.01	27.7328
257	69718	6.11	27.6932
257	71104	6.21	27.6293
257	72490	6.31	27.5317
257	73876	6.41	27.3897
257	75262	6.51	27.192
257	76648	6.61	26.9267
257	78034	6.71	26.5827
257	79420	6.81	26.1499
257	80806	6.91	25.6207
257	82204	7.01	24.9906
257	83590	7.11	24.2608
257	84976	7.21	23.4383
257	86362	7.31	22.5458
257	87748	7.41	21.6458
257	89134	7.51	20.7458
257	90520	7.61	19.8458
257	91906	7.71	18.9458
257	93292	7.81	18.0458
257	94678	7.91	17.1458
257	96076	8.01	16.2458
257	97462	8.11	15.3458
257	98848	8.21	14.4458
257	100234	8.31	13.5458
257	101620	8.41	12.6458
257	103006	8.51	11.7458
257	104392	8.61	10.8458
257	105778	8.71	9.94576
257	107164	8.81	9.04576
257	108550	8.91	8.14576
257	109948	9.01	7.24576
257	111334	9.11	6.34576
257	112720	9.21	5.44576
257	114106	9.31	4.54576
257	115492	9.41	3.64576
257	116878	9.51	2.74576
255	344	1.11	2.76547e-05
255	1732	1.21	0.000106203
255	3119	1.31	0.000216788
255	4507	1.41	0.000339491
255	5894	1.51	0.000455476
255	7281	1.61	0.000548657
255	8667	1.71	0.000606842
255	10054	1.81	0.00062237
255	11440	1.91	0.000592267
255	12841	2.01	0.000518004
255	14227	2.11	0.000404936
255	15613	2.21	0.000261495
255	16999	2.31	9.8257e-05
255	18385	2.41	-7.30562e-05
255	19771	2.51	-0.000240545
255	21157	2.61	-0.000393014
255	22543	2.71	-0.000520719
255	23929	2.81	-0.000615935
255	25315	2.91	-0.000673339
255	26713	3.01	-0.000690196
255	28099	3.11	-0.000666359
255	29485	3.21	-0.000604101
255	30871	3.31	-0.00050781
255	32257	3.41	-0.000383577
255	33643	3.51	-0.000238715
255	35029	3.61	-8.12429e-05
255	36415	3.71	8.06267e-05
255	37801	3.81	0.000238971
255	39187	3.91	0.000386578
255	40585	4.01	0.000517298
255	41971	4.11	0.000626291
255	43357	4.21	0.000710193
255	44743	4.31	0.000767172
255	46129	4.41	0.000796901
255	47515	4.51	0.000800443
255	48901	4.61	0.000780073
255	50287	4.71	0.000739053
255	51673	4.81	0.000681362
255	53059	4.91	0.000611427
255	54460	5.01	0.000533843
255	55846	5.11	0.000451236
255	57232	5.21	0.00029658
255	58618	5.31	-0.000398026
255	60004	5.41	-0.0030649
255	61390	5.51	-0.0106355
255	62776	5.61	-0.0278321
255	64162	5.71	-0.0610986
255	65548	5.81	-0.118146
255	66934	5.91	-0.207168
255	68332	6.01	-0.335827
255	69718	6.11	-0.510176
255	71104	6.21	-0.733632
255	72490	6.31	-1.00618
255	73876	6.41	-1.32386
255	75262	6.51	-1.67867
255	76648	6.61	-2.05888
255	78034	6.71	-2.44964
255	79420	6.81	-2.83401
255	80806	6.91	-3.19046
255	82204	7.01	-3.46035
255	83590	7.11	-3.63055
255	84976	7.21	-3.70803
255	86362	7.31	-3.71548
255	87748	7.41	-3.71548
255	89134	7.51	-3.71548
255	90520	7.61	-3.71548
255	91906	7.71	-3.71548
255	93292	7.81	-3.71548
255	94678	7.91	-3.71548
255	96076	8.01	-3.71548
255	97462	8.11	-3.71548
255	98848	8.21	-3.71458
255	100234	8.31	-3.70681
255	101620	8.41	-3.68579
255	103006	8.51	-3.64724
255	104392	8.61	-3.58896
255	105778	8.71	-3.5106
255	107164	8.81	-3.41341
255	108550	8.91	-3.29984
255	109948	9.01	-3.17321
255	111334	9.11	-3.03713
255	112720	9.21	-2.89401
255	114106	9.31	-2.74268
255	115492	9.41	-2.56902
255	116878	9.51	0
254	344	1.11	10.33
254	1732	1.21	10.33
254	3119	1.31	10.33
254	4507	1.41	10.3301
254	5894	1.51	10.3301
254	7281	1.61	10.3301
254	8667	1.71	10.3302
254	10054	1.81	10.3303
254	11440	1.91	10.3303
254	12841	2.01	10.3304
254	14227	2.11	10.3304
254	15613	2.21	10.3305
254	16999	2.31	10.3305
254	18385	2.41	10.3305
254	19771	2.51	10.3305
254	21157	2.61	10.3304
254	22543	2.71	10.3304
254	23929	2.81	10.3303
254	25315	2.91	10.3303
254	26713	3.01	10.3302
254	28099	3.11	10.3301
254	29485	3.21	10.3301
254	30871	3.31	10.33
254	32257	3.41	10.33
254	33643	3.51	10.3299
254	35029	3.61	10.3299
254	36415	3.71	10.3299
254	37801	3.81	10.3299
254	39187	3.91	10.33
254	40585	4.01	10.33
254	41971	4.11	10.3301
254	43357	4.21	10.3301
254	44743	4.31	10.3302
254	46129	4.41	10.3303
254	47515	4.51	10.3304
254	48901	4.61	10.3304
254	50287	4.71	10.3305
254	51673	4.81	10.3306
254	53059	4.91	10.3307
254	54460	5.01	10.3307
254	55846	5.11	10.3308
254	57232	5.21	10.3308
254	58618	5.31	10.3308
254	60004	5.41	10.3307
254	61390	5.51	10.33
254	62776	5.61	10.3282
254	64162	5.71	10.3239
254	65548	5.81	10.3152
254	66934	5.91	10.2992
254	68332	6.01	10.2724
254	69718	6.11	10.2305
254	71104	6.21	10.1687
254	72490	6.31	10.0821
254	73876	6.41	9.96599
254	75262	6.51	9.81613
254	76648	6.61	9.6294
254	78034	6.71	9.404
254	79420	6.81	9.13969
254	80806	6.91	8.83805
254	82204	7.01	8.50467
254	83590	7.11	8.14933
254	84976	7.21	7.78167
254	86362	7.31	7.41024
254	87748	7.41	7.03869
254	89134	7.51	6.66714
254	90520	7.61	6.29559
254	91906	7.71	5.92405
254	93292	7.81	5.5525
254	94678	7.91	5.18095
254	96076	8.01	4.8094
254	97462	8.11	4.43786
254	98848	8.21	4.06633
254	100234	8.31	3.69517
254	101620	8.41	3.32541
254	103006	8.51	2.9586
254	104392	8.61	2.59663
254	105778	8.71	2.24149
254	107164	8.81	1.89514
254	108550	8.91	1.55935
254	109948	9.01	1.23561
254	111334	9.11	0.925027
254	112720	9.21	0.628414
254	114106	9.31	0.346494
254	115492	9.41	0.0805814
254	116878	9.51	0
256	344	1.11	9
256	1732	1.21	9
256	3119	1.31	9
256	4507	1.41	9
256	5894	1.51	9
256	7281	1.61	9
256	8667	1.71	9
256	10054	1.81	9
256	11440	1.91	9
256	12841	2.01	9
256	14227	2.11	9
256	15613	2.21	9
256	16999	2.31	9
256	18385	2.41	9
256	19771	2.51	9
256	21157	2.61	9
256	22543	2.71	9
256	23929	2.81	9
256	25315	2.91	9
256	26713	3.01	9
256	28099	3.11	9
256	29485	3.21	9
256	30871	3.31	9
256	32257	3.41	9
256	33643	3.51	9
256	35029	3.61	9
256	36415	3.71	9
256	37801	3.81	9
256	39187	3.91	9
256	40585	4.01	9
256	41971	4.11	9
256	43357	4.21	9
256	44743	4.31	9
256	46129	4.41	9
256	47515	4.51	9
256	48901	4.61	9
256	50287	4.71	9
256	51673	4.81	9
256	53059	4.91	9
256	54460	5.01	9
256	55846	5.11	9
256	57232	5.21	9
256	58618	5.31	9
256	60004	5.41	9
256	61390	5.51	9
256	62776	5.61	9
256	64162	5.71	9
256	65548	5.81	9
256	66934	5.91	9
256	68332	6.01	9
256	69718	6.11	9
256	71104	6.21	9
256	72490	6.31	9
256	73876	6.41	9
256	75262	6.51	9
256	76648	6.61	9
256	78034	6.71	9
256	79420	6.81	9
256	80806	6.91	9
256	82204	7.01	9
256	83590	7.11	9
256	84976	7.21	9
256	86362	7.31	9
256	87748	7.41	9
256	89134	7.51	9
256	90520	7.61	9
256	91906	7.71	9
256	93292	7.81	9
256	94678	7.91	9
256	96076	8.01	9
256	97462	8.11	9
256	98848	8.21	9
256	100234	8.31	9
256	101620	8.41	9
256	103006	8.51	9
256	104392	8.61	9
256	105778	8.71	9
256	107164	8.81	9
256	108550	8.91	9
256	109948	9.01	9
256	111334	9.11	9
256	112720	9.21	9
256	114106	9.31	9
256	115492	9.41	9
256	116878	9.51	9
268	2325	1.253114484387	0.09999786881
268	3712	1.353125353191	0.100010868804
268	5100	1.45312322199	0.099997868799
268	6487	1.55312109078	0.09999786879
268	7873	1.653118959562	0.099997868782
268	9260	1.753116828339	0.099997868777
268	10646	1.85311469711	0.099997868771
268	12033	1.953125565871	0.100010868761
268	13433	2.053123434627	0.099997868756
268	14819	2.153121303374	0.099997868747
268	16205	2.253119172115	0.099997868741
268	17591	2.353117040849	0.099997868734
268	18977	2.453114909575	0.099997868726
268	20363	2.553125778295	0.10001086872
268	21749	2.653123647007	0.099997868712
268	23135	2.753121515712	0.099997868705
268	24521	2.853119384412	0.0999978687
268	25907	2.953117253104	0.099997868692
268	27305	3.053115121792	0.099997868688
268	28691	3.153125990478	0.100010868686
268	30077	3.253123859156	0.099997868678
268	31463	3.353121727827	0.099997868671
268	32849	3.453119596493	0.099997868666
268	34235	3.553117465154	0.099997868661
268	35621	3.653115333813	0.099997868659
268	37007	3.753126202468	0.100010868655
268	38393	3.853124071121	0.099997868653
268	39779	3.953121939771	0.09999786865
268	41177	4.053119808416	0.099997868645
268	42563	4.153117677057	0.099997868641
268	43949	4.253115545695	0.099997868638
268	45335	4.353126414332	0.100010868637
268	46721	4.453124282963	0.099997868631
268	48107	4.553122151592	0.099997868629
268	49493	4.653120020219	0.099997868627
268	50879	4.753117888844	0.099997868625
268	52265	4.853115757462	0.099997868618
268	53651	4.953113626079	0.099997868617
268	55052	5.053124494692	0.100010868613
268	56438	5.153122363259	0.099997868567
268	57824	5.253120231619	0.09999786836
268	59210	5.353118099473	0.099997867854
268	60602	5.453115966415	0.099997866942
268	61988	5.553113831942	0.099997865527
268	63374	5.65312469547	0.100010863528
268	64760	5.753122556363	0.099997860893
268	66146	5.853120413938	0.099997857575
268	67532	5.953118267496	0.099997853558
268	68930	6.053116116327	0.099997848831
268	70316	6.153113959741	0.099997843414
268	71702	6.253124797085	0.100010837344
268	73088	6.353122627769	0.099997830684
268	74474	6.453120451283	0.099997823514
268	75860	6.553118267227	0.099997815944
268	77246	6.653116073437	0.09999780621
268	78632	6.753113871783	0.099997798346
268	80018	6.853124662299	0.100010790516
268	81404	6.953122445192	0.099997782893
268	82802	7.05312022085	0.099997775658
268	84188	7.153117989795	0.099997768945
268	85574	7.253115752696	0.099997762901
268	86960	7.353113510319	0.099997757623
268	88346	7.453124263472	0.100010753153
268	89732	7.553122012974	0.099997749502
268	91118	7.653119759659	0.099997746685
268	92504	7.753117504371	0.099997744712
268	93890	7.853115247969	0.099997743598
268	95276	7.953125991324	0.100010743355
268	96674	8.053123735318	0.099997743994
268	98060	8.153121480842	0.099997745524
268	99440	8.253119228793	0.099997747951
268	100826	8.353116980074	0.099997751281
268	102212	8.453114735586	0.099997755512
268	103598	8.553125496217	0.100010760631
268	104984	8.653123262845	0.099997766628
268	106364	8.75312103632	0.099997773475
268	107750	8.853118817476	0.099997781156
268	109136	8.953116607126	0.09999778965
268	110534	9.053114406146	0.09999779902
268	111920	9.153125215782	0.100010809636
268	113300	9.253123037357	0.099997821575
268	114686	9.353120872175	0.099997834818
268	116072	9.453118721529	0.099997849354
267	2576	1.255251678288	0.10002386881
267	3963	1.355249547092	0.099997868804
267	5351	1.455169415889	0.099919868797
267	6738	1.555245284679	0.10007586879
267	8124	1.655217153461	0.099971868782
267	9511	1.755241022237	0.100023868776
267	10897	1.855173891007	0.09993286877
267	12284	1.955197759768	0.100023868761
267	13684	2.055169628522	0.099971868754
267	15070	2.155206497268	0.100036868746
267	16456	2.255217366009	0.100010868741
267	17842	2.355202234741	0.099984868732
267	19228	2.455174103467	0.099971868726
267	20614	2.555171972185	0.099997868718
267	22000	2.655169840897	0.099997868712
267	23386	2.755193709601	0.100023868704
267	24772	2.8552305783	0.100036868699
267	26158	2.955176446993	0.099945868693
267	27556	3.055252315681	0.100075868688
267	28942	3.155185184365	0.099932868684
267	30328	3.255196053043	0.100010868678
267	31714	3.355193921714	0.099997868671
267	33100	3.45517879038	0.099984868666
267	34486	3.555228659042	0.100049868662
267	35872	3.655174527701	0.099945868659
267	37258	3.755224396356	0.100049868655
267	38644	3.855235265009	0.100010868653
267	40030	3.955220133658	0.099984868649
267	41428	4.055218002303	0.099997868645
267	42814	4.155202870944	0.099984868641
267	44200	4.255200739583	0.099997868639
267	45586	4.355172608219	0.099971868636
267	46972	4.45522247685	0.100049868631
267	48358	4.55516834548	0.09994586863
267	49744	4.655192214107	0.100023868627
267	51130	4.755216082732	0.100023868625
267	52516	4.85520095135	0.099984868618
267	53902	4.955237819967	0.100036868617
267	55303	5.055248688575	0.100010868608
267	56689	5.155194557074	0.099945868499
267	58075	5.25519242522	0.099997868146
267	59461	5.355190292646	0.099997867426
267	60847	5.455188158891	0.099997866245
267	62233	5.555264023408	0.100075864517
267	63619	5.655209885586	0.099945862178
267	65005	5.755259744767	0.100049859181
267	66391	5.855205600264	0.099945855497
267	67777	5.955164451379	0.099958851115
267	69175	6.055188297423	0.100023846044
267	70561	6.155238137731	0.100049840308
267	71947	6.255183971689	0.099945833958
267	73333	6.355246798753	0.100062827064
267	74719	6.455244618464	0.099997819711
267	76105	6.555203430479	0.099958812015
267	77491	6.655253232687	0.100049802208
267	78877	6.755212027016	0.099958794329
267	80263	6.855183813549	0.099971786533
267	81649	6.955168592534	0.099984778985
267	83047	7.055205364368	0.100036771834
267	84433	7.155229129573	0.100023765205
267	85814	7.255226888814	0.099997759241
267	87200	7.35519864286	0.099971754046
267	88586	7.455261392516	0.100062749656
267	89972	7.5552331386	0.099971746084
267	91358	7.655217881944	0.099984743344
267	92744	7.755215623396	0.099997741452
267	94130	7.855174363811	0.099958740415
267	95516	7.955237104058	0.100062740247
267	96914	8.055195845022	0.099958740964
267	98300	8.15519358759	0.099997742568
267	99686	8.255230332658	0.100036745068
267	101072	8.355254081126	0.100023748468
267	102458	8.455238833887	0.099984752761
267	103844	8.555236591817	0.09999775793
267	105230	8.655169355783	0.099932763966
267	106616	8.755180126625	0.100010770842
267	108002	8.855203905168	0.100023778543
267	109388	8.955162692219	0.099958787051
267	110786	9.05525148885	0.100088796631
267	112172	9.155249296613	0.099997807763
267	113558	9.255221116824	0.099971820211
267	114944	9.355244950751	0.100023833927
267	116324	9.455164799589	0.099919848838
266	2325	1.253114484387	9
266	3712	1.353125353191	9
266	5100	1.45312322199	9
266	6487	1.55312109078	9
266	7873	1.653118959562	9
266	9260	1.753116828339	9
266	10646	1.85311469711	9
266	12033	1.953125565871	9
266	13433	2.053123434627	9
266	14819	2.153121303374	9
266	16205	2.253119172115	9
266	17591	2.353117040849	9
266	18977	2.453114909575	9
266	20363	2.553125778295	9
266	21749	2.653123647007	9
266	23135	2.753121515712	9
266	24521	2.853119384412	9
266	25907	2.953117253104	9
266	27305	3.053115121792	9
266	28691	3.153125990478	9
266	30077	3.253123859156	9
266	31463	3.353121727827	9
266	32849	3.453119596493	9
266	34235	3.553117465154	9
266	35621	3.653115333813	9
266	37007	3.753126202468	9
266	38393	3.853124071121	9
266	39779	3.953121939771	9
266	41177	4.053119808416	9
266	42563	4.153117677057	9
266	43949	4.253115545695	9
266	45335	4.353126414332	9
266	46721	4.453124282963	9
266	48107	4.553122151592	9
266	49493	4.653120020219	9
266	50879	4.753117888844	9
266	52265	4.853115757462	9
266	53651	4.953113626079	9
266	55052	5.053124494692	9
266	56438	5.153122363259	9
266	57824	5.253120231619	9
266	59210	5.353118099473	9
266	60602	5.453115966415	9
266	61988	5.553113831942	9
266	63374	5.65312469547	9
266	64760	5.753122556363	9
266	66146	5.853120413938	9
266	67532	5.953118267496	9
266	68930	6.053116116327	9
266	70316	6.153113959741	9
266	71702	6.253124797085	9
266	73088	6.353122627769	9
266	74474	6.453120451283	9
266	75860	6.553118267227	9
266	77246	6.653116073437	9
266	78632	6.753113871783	9
266	80018	6.853124662299	9
266	81404	6.953122445192	9
266	82802	7.05312022085	9
266	84188	7.153117989795	9
266	85574	7.253115752696	9
266	86960	7.353113510319	9
266	88346	7.453124263472	9
266	89732	7.553122012974	9
266	91118	7.653119759659	9
266	92504	7.753117504371	9
266	93890	7.853115247969	9
266	95276	7.953125991324	9
266	96674	8.053123735318	9
266	98060	8.153121480842	9
266	99440	8.253119228793	9
266	100826	8.353116980074	9
266	102212	8.453114735586	9
266	103598	8.553125496217	9
266	104984	8.653123262845	9
266	106364	8.75312103632	9
266	107750	8.853118817476	9
266	109136	8.953116607126	9
266	110534	9.053114406146	9
266	111920	9.153125215782	9
266	113300	9.253123037357	9
266	114686	9.353120872175	9
266	116072	9.453118721529	9
265	2576	1.255251678288	9
265	3963	1.355249547092	9
265	5351	1.455169415889	9
265	6738	1.555245284679	9
265	8124	1.655217153461	9
265	9511	1.755241022237	9
265	10897	1.855173891007	9
265	12284	1.955197759768	9
265	13684	2.055169628522	9
265	15070	2.155206497268	9
265	16456	2.255217366009	9
265	17842	2.355202234741	9
265	19228	2.455174103467	9
265	20614	2.555171972185	9
265	22000	2.655169840897	9
265	23386	2.755193709601	9
265	24772	2.8552305783	9
265	26158	2.955176446993	9
265	27556	3.055252315681	9
265	28942	3.155185184365	9
265	30328	3.255196053043	9
265	31714	3.355193921714	9
265	33100	3.45517879038	9
265	34486	3.555228659042	9
265	35872	3.655174527701	9
265	37258	3.755224396356	9
265	38644	3.855235265009	9
265	40030	3.955220133658	9
265	41428	4.055218002303	9
265	42814	4.155202870944	9
265	44200	4.255200739583	9
265	45586	4.355172608219	9
265	46972	4.45522247685	9
265	48358	4.55516834548	9
265	49744	4.655192214107	9
265	51130	4.755216082732	9
265	52516	4.85520095135	9
265	53902	4.955237819967	9
265	55303	5.055248688575	9
265	56689	5.155194557074	9
265	58075	5.25519242522	9
265	59461	5.355190292646	9
265	60847	5.455188158891	9
265	62233	5.555264023408	9
265	63619	5.655209885586	9
265	65005	5.755259744767	9
265	66391	5.855205600264	9
265	67777	5.955164451379	9
265	69175	6.055188297423	9
265	70561	6.155238137731	9
265	71947	6.255183971689	9
265	73333	6.355246798753	9
265	74719	6.455244618464	9
265	76105	6.555203430479	9
265	77491	6.655253232687	9
265	78877	6.755212027016	9
265	80263	6.855183813549	9
265	81649	6.955168592534	9
265	83047	7.055205364368	9
265	84433	7.155229129573	9
265	85814	7.255226888814	9
265	87200	7.35519864286	9
265	88586	7.455261392516	9
265	89972	7.5552331386	9
265	91358	7.655217881944	9
265	92744	7.755215623396	9
265	94130	7.855174363811	9
265	95516	7.955237104058	9
265	96914	8.055195845022	9
265	98300	8.15519358759	9
265	99686	8.255230332658	9
265	101072	8.355254081126	9
265	102458	8.455238833887	9
265	103844	8.555236591817	9
265	105230	8.655169355783	9
265	106616	8.755180126625	9
265	108002	8.855203905168	9
265	109388	8.955162692219	9
265	110786	9.05525148885	9
265	112172	9.155249296613	9
265	113558	9.255221116824	9
265	114944	9.355244950751	9
265	116324	9.455164799589	9
264	12615	2	0
264	26489	3	0
264	40361	4	0
264	54236	5	0
264	68108	6	0
264	81980	7	0
264	95852	8	0
264	109724	9	0
263	12615	2	0.062105
263	26489	3	0.06905
263	40361	4	0.06905
263	54236	5	0.06905
263	68108	6	0.06905
263	81980	7	0.06905
263	95852	8	0.06905
263	109724	9	0.06905
262	12615	2	9
262	26489	3	9
262	40361	4	9
262	54236	5	9
262	68108	6	9
262	81980	7	9
262	95852	8	9
262	109724	9	9
