version 2
run Braking-2-20190101-22:55:18-5979
attr beaconInterval 0.1
attr configname Braking
attr controller 1
attr datetime 20190101-22:55:18
attr experiment Braking
attr headway 0.1
attr humanCars 1
attr humanLanes 1
attr inifile omnetpp.ini
attr iterationvars "$nCars=8, $platoonSize=8, $nLanes=1, $humanCars=1, $humanLanes=1, $ploegH=0.5, $controller=1, $sController=\"CACC\", $headway=0.1, $leaderHeadway=1.2, $leaderSpeed=100, $beaconInterval=0.1, $priority=4, $packetSize=200, $0=5, $1=0"
attr iterationvarsf nCars=8,platoonSize=8,nLanes=1,humanCars=1,humanLanes=1,ploegH=0.5,controller=1,sController=CACC,headway=0.1,leaderHeadway=1.2,leaderSpeed=100,beaconInterval=0.1,priority=4,packetSize=200,5,0-
attr leaderHeadway 1.2
attr leaderSpeed 100
attr measurement "$nCars=8, $platoonSize=8, $nLanes=1, $humanCars=1, $humanLanes=1, $ploegH=0.5, $controller=1, $sController=\"CACC\", $headway=0.1, $leaderHeadway=1.2, $leaderSpeed=100, $beaconInterval=0.1, $priority=4, $packetSize=200, $0=5, $1=0"
attr nCars 8
attr nLanes 1
attr network Highway
attr packetSize 200
attr platoonSize 8
attr ploegH 0.5
attr priority 4
attr processid 5979
attr repetition 0
attr replication #0
attr resultdir results
attr runnumber 2
attr sController "\"CACC\""
attr seedset 0
param **.coreDebug false
param **.debug false
param **.headway 0.1s
param **.numberOfCars 8
param **.numberOfCarsPerPlatoon 8
param **.numberOfHumanCars 1
param **.numberOfHumanLanes 1
param **.numberOfLanes 1
param **.numericController 1
param **.seed 0
param **.traffic.humanCars 1
param **.traffic.humanLanes 1
param **.traffic.humanVType "\"vtypehuman\""
param **.traffic.nCars 8
param **.traffic.nLanes 1
param **.traffic.platoonInsertDistance 5m
param **.traffic.platoonInsertHeadway 0s
param **.traffic.platoonInsertSpeed 100kmph
param **.traffic.platoonInsertTime "1 s"
param **.traffic.platoonLeaderHeadway 1.2s
param **.traffic.platoonSize 8
param **.traffic.platooningVType "\"vtypeauto\""
param **.traffic_type "\"PlatoonsPlusHumanTraffic\""
param *.**.nic.mac1609_4.bitrate 6Mbps
param *.**.nic.mac1609_4.txPower 100mW
param *.**.nic.mac1609_4.useServiceChannel false
param *.**.nic.phy80211p.analogueModels "xmldoc(\"config.xml\")"
param *.**.nic.phy80211p.decider "xmldoc(\"config.xml\")"
param *.**.nic.phy80211p.maxTXPower 100mW
param *.**.nic.phy80211p.sensitivity -94dBm
param *.**.nic.phy80211p.thermalNoise -95dBm
param *.**.nic.phy80211p.usePropagationDelay true
param *.**.nic.phy80211p.useThermalNoise true
param *.annotations.draw false
param *.connectionManager.drawMaxIntfDist false
param *.connectionManager.maxInterfDist 2600m
param *.connectionManager.sendDirect true
param *.human[*].mobility.x 0
param *.human[*].mobility.y 0
param *.human[*].mobility.z 1.895
param *.human[*].prot.beaconingInterval "0.1 s"
param *.human[*].prot.bitrate "3 Mbps"
param *.human[*].prot.packetSize 200
param *.human[*].prot.priority 4
param *.human[*].prot.txPower "100 mW"
param *.manager.autoShutdown true
param *.manager.configFile "\"./sumocfg/freeway.sumo.cfg\""
param *.manager.host "\"localhost\""
param *.manager.margin 25
param *.manager.moduleDisplayString "\"\""
param *.manager.moduleName "\"vtypeauto=node vtypehuman=human\""
param *.manager.moduleType "\"vtypeauto=org.car2x.veins.modules.application.platooning.PlatoonCar vtypehuman=HumanCar\""
param *.manager.updateInterval 0.01s
param *.manager.useGui true
param *.node[*].appl_type "\"SimplePlatooningApp\""
param *.node[*].helper.nCars 8
param *.node[*].helper.nLanes 1
param *.node[*].helper.platoonSize 8
param *.node[*].helper_type "\"PositionHelper\""
param *.node[*].mobility.x 0
param *.node[*].mobility.y 0
param *.node[*].mobility.z 1.895
param *.node[*].prot.beaconingInterval 0.1s
param *.node[*].prot.packetSize 200
param *.node[*].prot.priority 4
param *.node[*].prot.useControllerAcceleration true
param *.node[*].protocol_type "\"SimplePlatooningBeaconing\""
param *.node[*].scenario.accHeadway 0.1s
param *.node[*].scenario.brakingDeceleration "8 mpsps"
param *.node[*].scenario.caccC1 0.5
param *.node[*].scenario.caccOmegaN "0.2 Hz"
param *.node[*].scenario.caccXi 1
param *.node[*].scenario.controller "\"CACC\""
param *.node[*].scenario.engineTau "0.5 s"
param *.node[*].scenario.leaderHeadway 1.2s
param *.node[*].scenario.leaderOscillationFrequency "0.2 Hz"
param *.node[*].scenario.leaderSpeed 100kmph
param *.node[*].scenario.ploegH 0.5s
param *.node[*].scenario.ploegKd 0.7
param *.node[*].scenario.ploegKp 0.2
param *.node[*].scenario.startBraking "5 s"
param *.node[*].scenario.useRealisticEngine false
param *.node[*].scenario.vehicleFile "\"./sumocfg/vehicles.xml\""
param *.node[*].scenario_type "\"BrakingScenario\""
param *.node[*].unicast.packetLossRate 0
param *.obstacles.debug false
param *.playgroundSizeX 65000m
param *.playgroundSizeY 25000m
param *.playgroundSizeZ 50m
param *.world.use2D false
param *.world.useTorus false

vector 1  Highway.node[0].appl  distance  ETV
vector 2  Highway.node[0].appl  relativeSpeed  ETV
vector 3  Highway.node[0].appl  nodeId  ETV
vector 7  Highway.node[0].appl  acceleration  ETV
vector 8  Highway.node[0].appl  controllerAcceleration  ETV
vector 4  Highway.node[0].appl  speed  ETV
vector 5  Highway.node[0].appl  posx  ETV
vector 6  Highway.node[0].appl  posy  ETV
vector 24  Highway.node[1].appl  distance  ETV
vector 25  Highway.node[1].appl  relativeSpeed  ETV
vector 26  Highway.node[1].appl  nodeId  ETV
vector 30  Highway.node[1].appl  acceleration  ETV
vector 31  Highway.node[1].appl  controllerAcceleration  ETV
vector 27  Highway.node[1].appl  speed  ETV
vector 28  Highway.node[1].appl  posx  ETV
vector 29  Highway.node[1].appl  posy  ETV
vector 47  Highway.node[2].appl  distance  ETV
vector 48  Highway.node[2].appl  relativeSpeed  ETV
vector 49  Highway.node[2].appl  nodeId  ETV
vector 53  Highway.node[2].appl  acceleration  ETV
vector 54  Highway.node[2].appl  controllerAcceleration  ETV
vector 50  Highway.node[2].appl  speed  ETV
vector 51  Highway.node[2].appl  posx  ETV
vector 52  Highway.node[2].appl  posy  ETV
vector 70  Highway.node[3].appl  distance  ETV
vector 71  Highway.node[3].appl  relativeSpeed  ETV
vector 72  Highway.node[3].appl  nodeId  ETV
vector 76  Highway.node[3].appl  acceleration  ETV
vector 77  Highway.node[3].appl  controllerAcceleration  ETV
vector 73  Highway.node[3].appl  speed  ETV
vector 74  Highway.node[3].appl  posx  ETV
vector 75  Highway.node[3].appl  posy  ETV
vector 93  Highway.node[4].appl  distance  ETV
vector 94  Highway.node[4].appl  relativeSpeed  ETV
vector 95  Highway.node[4].appl  nodeId  ETV
vector 99  Highway.node[4].appl  acceleration  ETV
vector 100  Highway.node[4].appl  controllerAcceleration  ETV
vector 96  Highway.node[4].appl  speed  ETV
vector 97  Highway.node[4].appl  posx  ETV
vector 98  Highway.node[4].appl  posy  ETV
vector 116  Highway.node[5].appl  distance  ETV
vector 117  Highway.node[5].appl  relativeSpeed  ETV
vector 118  Highway.node[5].appl  nodeId  ETV
vector 122  Highway.node[5].appl  acceleration  ETV
vector 123  Highway.node[5].appl  controllerAcceleration  ETV
vector 119  Highway.node[5].appl  speed  ETV
vector 120  Highway.node[5].appl  posx  ETV
vector 121  Highway.node[5].appl  posy  ETV
vector 139  Highway.node[6].appl  distance  ETV
vector 140  Highway.node[6].appl  relativeSpeed  ETV
vector 141  Highway.node[6].appl  nodeId  ETV
vector 145  Highway.node[6].appl  acceleration  ETV
vector 146  Highway.node[6].appl  controllerAcceleration  ETV
vector 142  Highway.node[6].appl  speed  ETV
vector 143  Highway.node[6].appl  posx  ETV
vector 144  Highway.node[6].appl  posy  ETV
vector 162  Highway.node[7].appl  distance  ETV
vector 163  Highway.node[7].appl  relativeSpeed  ETV
vector 164  Highway.node[7].appl  nodeId  ETV
vector 168  Highway.node[7].appl  acceleration  ETV
vector 169  Highway.node[7].appl  controllerAcceleration  ETV
vector 165  Highway.node[7].appl  speed  ETV
vector 166  Highway.node[7].appl  posx  ETV
vector 167  Highway.node[7].appl  posy  ETV
vector 84  Highway.node[3].prot  frontDelay  ETV
vector 82  Highway.node[3].prot  frontDelayId  ETV
vector 61  Highway.node[2].prot  frontDelay  ETV
vector 59  Highway.node[2].prot  frontDelayId  ETV
vector 176  Highway.node[7].prot  frontDelay  ETV
vector 174  Highway.node[7].prot  frontDelayId  ETV
vector 37  Highway.node[1].prot  leaderDelay  ETV
vector 35  Highway.node[1].prot  leaderDelayId  ETV
vector 38  Highway.node[1].prot  frontDelay  ETV
vector 36  Highway.node[1].prot  frontDelayId  ETV
vector 60  Highway.node[2].prot  leaderDelay  ETV
vector 58  Highway.node[2].prot  leaderDelayId  ETV
vector 83  Highway.node[3].prot  leaderDelay  ETV
vector 81  Highway.node[3].prot  leaderDelayId  ETV
vector 106  Highway.node[4].prot  leaderDelay  ETV
vector 104  Highway.node[4].prot  leaderDelayId  ETV
vector 129  Highway.node[5].prot  leaderDelay  ETV
vector 127  Highway.node[5].prot  leaderDelayId  ETV
vector 152  Highway.node[6].prot  leaderDelay  ETV
vector 150  Highway.node[6].prot  leaderDelayId  ETV
vector 175  Highway.node[7].prot  leaderDelay  ETV
vector 173  Highway.node[7].prot  leaderDelayId  ETV
vector 130  Highway.node[5].prot  frontDelay  ETV
vector 128  Highway.node[5].prot  frontDelayId  ETV
vector 107  Highway.node[4].prot  frontDelay  ETV
vector 105  Highway.node[4].prot  frontDelayId  ETV
vector 153  Highway.node[6].prot  frontDelay  ETV
vector 151  Highway.node[6].prot  frontDelayId  ETV
vector 9  Highway.node[0].prot  nodeId  ETV
vector 10  Highway.node[0].prot  busyTime  ETV
vector 11  Highway.node[0].prot  collisions  ETV
vector 32  Highway.node[1].prot  nodeId  ETV
vector 33  Highway.node[1].prot  busyTime  ETV
vector 34  Highway.node[1].prot  collisions  ETV
vector 55  Highway.node[2].prot  nodeId  ETV
vector 56  Highway.node[2].prot  busyTime  ETV
vector 57  Highway.node[2].prot  collisions  ETV
vector 78  Highway.node[3].prot  nodeId  ETV
vector 79  Highway.node[3].prot  busyTime  ETV
vector 80  Highway.node[3].prot  collisions  ETV
vector 101  Highway.node[4].prot  nodeId  ETV
vector 102  Highway.node[4].prot  busyTime  ETV
vector 103  Highway.node[4].prot  collisions  ETV
vector 124  Highway.node[5].prot  nodeId  ETV
vector 125  Highway.node[5].prot  busyTime  ETV
vector 126  Highway.node[5].prot  collisions  ETV
vector 147  Highway.node[6].prot  nodeId  ETV
vector 148  Highway.node[6].prot  busyTime  ETV
vector 149  Highway.node[6].prot  collisions  ETV
vector 170  Highway.node[7].prot  nodeId  ETV
vector 171  Highway.node[7].prot  busyTime  ETV
vector 172  Highway.node[7].prot  collisions  ETV
8	300	1.11	-0.00218518
8	980	1.21	-0.00213419
8	1658	1.31	-0.00205408
8	2337	1.41	-0.00195152
8	3016	1.51	-0.00183238
8	3694	1.61	-0.00170178
8	4372	1.71	-0.00156412
8	5051	1.81	-0.00142314
8	5729	1.91	-0.00128196
8	6418	2.01	-0.00114315
8	7096	2.11	-0.00100877
8	7774	2.21	-0.000880447
8	8452	2.31	-0.000759381
8	9130	2.41	-0.000646445
8	9808	2.51	-0.000542204
8	10486	2.61	-0.000446965
8	11164	2.71	-0.000360819
8	11842	2.81	-0.000283678
8	12520	2.91	-0.000215307
8	13206	3.01	-0.000155357
8	13884	3.11	-0.000103391
8	14562	3.21	-5.89069e-05
8	15240	3.31	-2.13575e-05
8	15918	3.41	9.82919e-06
8	16596	3.51	3.52368e-05
8	17274	3.61	5.54479e-05
8	17952	3.71	7.10335e-05
8	18630	3.81	8.25451e-05
8	19308	3.91	9.05081e-05
8	19994	4.01	9.54172e-05
8	20672	4.11	9.7733e-05
8	21350	4.21	9.78798e-05
8	22028	4.31	9.62447e-05
8	22706	4.41	9.31771e-05
8	23384	4.51	8.89894e-05
8	24062	4.61	8.39579e-05
8	24740	4.71	7.83245e-05
8	25418	4.81	7.22983e-05
8	26096	4.91	6.6058e-05
8	26783	5.01	-8
8	27461	5.11	-8
8	28139	5.21	-8
8	28817	5.31	-8
8	29495	5.41	-8
8	30173	5.51	-8
8	30851	5.61	-8
8	31529	5.71	-8
8	32207	5.81	-8
7	300	1.11	-0.000358191
7	980	1.21	-0.000681704
7	1658	1.31	-0.00093487
7	2337	1.41	-0.00112579
7	3016	1.51	-0.00126221
7	3694	1.61	-0.00135149
7	4372	1.71	-0.00140049
7	5051	1.81	-0.00141557
7	5729	1.91	-0.00140255
7	6418	2.01	-0.00136671
7	7096	2.11	-0.0013128
7	7774	2.21	-0.00124502
7	8452	2.31	-0.0011671
7	9130	2.41	-0.00108223
7	9808	2.51	-0.000993208
7	10486	2.61	-0.000902362
7	11164	2.71	-0.000811651
7	11842	2.81	-0.000722679
7	12520	2.91	-0.000636729
7	13206	3.01	-0.0005548
7	13884	3.11	-0.000477639
7	14562	3.21	-0.000405773
7	15240	3.31	-0.00033954
7	15918	3.41	-0.000279116
7	16596	3.51	-0.000224541
7	17274	3.61	-0.000175743
7	17952	3.71	-0.00013256
7	18630	3.81	-9.47571e-05
7	19308	3.91	-6.2046e-05
7	19994	4.01	-3.40986e-05
7	20672	4.11	-1.05605e-05
7	21350	4.21	8.93844e-06
7	22028	4.31	2.4774e-05
7	22706	4.41	3.73203e-05
7	23384	4.51	4.69433e-05
7	24062	4.61	5.39956e-05
7	24740	4.71	5.88124e-05
7	25418	4.81	6.1709e-05
7	26096	4.91	6.29785e-05
7	26783	5.01	-0.156801
7	27461	5.11	-1.56585
7	28139	5.21	-2.72175
7	28817	5.31	-3.67
7	29495	5.41	-4.44789
7	30173	5.51	-5.08603
7	30851	5.61	-5.60953
7	31529	5.71	-6.03898
7	32207	5.81	-6.39128
6	300	1.11	242.45
6	980	1.21	242.45
6	1658	1.31	242.45
6	2337	1.41	242.45
6	3016	1.51	242.45
6	3694	1.61	242.45
6	4372	1.71	242.45
6	5051	1.81	242.45
6	5729	1.91	242.45
6	6418	2.01	242.45
6	7096	2.11	242.45
6	7774	2.21	242.45
6	8452	2.31	242.45
6	9130	2.41	242.45
6	9808	2.51	242.45
6	10486	2.61	242.45
6	11164	2.71	242.45
6	11842	2.81	242.45
6	12520	2.91	242.45
6	13206	3.01	242.45
6	13884	3.11	242.45
6	14562	3.21	242.45
6	15240	3.31	242.45
6	15918	3.41	242.45
6	16596	3.51	242.45
6	17274	3.61	242.45
6	17952	3.71	242.45
6	18630	3.81	242.45
6	19308	3.91	242.45
6	19994	4.01	242.45
6	20672	4.11	242.45
6	21350	4.21	242.45
6	22028	4.31	242.45
6	22706	4.41	242.45
6	23384	4.51	242.45
6	24062	4.61	242.45
6	24740	4.71	242.45
6	25418	4.81	242.45
6	26096	4.91	242.45
6	26783	5.01	242.45
6	27461	5.11	242.45
6	28139	5.21	242.45
6	28817	5.31	242.45
6	29495	5.41	242.45
6	30173	5.51	242.45
6	30851	5.61	242.45
6	31529	5.71	242.45
6	32207	5.81	242.45
5	300	1.11	73.9402
5	980	1.21	76.7182
5	1658	1.31	79.4962
5	2337	1.41	82.2742
5	3016	1.51	85.0521
5	3694	1.61	87.8301
5	4372	1.71	90.608
5	5051	1.81	93.386
5	5729	1.91	96.1639
5	6418	2.01	98.9418
5	7096	2.11	101.72
5	7774	2.21	104.498
5	8452	2.31	107.275
5	9130	2.41	110.053
5	9808	2.51	112.831
5	10486	2.61	115.609
5	11164	2.71	118.387
5	11842	2.81	121.165
5	12520	2.91	123.942
5	13206	3.01	126.72
5	13884	3.11	129.498
5	14562	3.21	132.276
5	15240	3.31	135.054
5	15918	3.41	137.831
5	16596	3.51	140.609
5	17274	3.61	143.387
5	17952	3.71	146.165
5	18630	3.81	148.942
5	19308	3.91	151.72
5	19994	4.01	154.498
5	20672	4.11	157.276
5	21350	4.21	160.053
5	22028	4.31	162.831
5	22706	4.41	165.609
5	23384	4.51	168.387
5	24062	4.61	171.165
5	24740	4.71	173.942
5	25418	4.81	176.72
5	26096	4.91	179.498
5	26783	5.01	182.276
5	27461	5.11	185.05
5	28139	5.21	187.808
5	28817	5.31	190.538
5	29495	5.41	193.231
5	30173	5.51	195.88
5	30851	5.61	198.477
5	31529	5.71	201.019
5	32207	5.81	203.5
4	300	1.11	27.78
4	980	1.21	27.7799
4	1658	1.31	27.7798
4	2337	1.41	27.7797
4	3016	1.51	27.7796
4	3694	1.61	27.7795
4	4372	1.71	27.7794
4	5051	1.81	27.7792
4	5729	1.91	27.7791
4	6418	2.01	27.7789
4	7096	2.11	27.7788
4	7774	2.21	27.7787
4	8452	2.31	27.7785
4	9130	2.41	27.7784
4	9808	2.51	27.7783
4	10486	2.61	27.7782
4	11164	2.71	27.7782
4	11842	2.81	27.7781
4	12520	2.91	27.778
4	13206	3.01	27.7779
4	13884	3.11	27.7779
4	14562	3.21	27.7779
4	15240	3.31	27.7778
4	15918	3.41	27.7778
4	16596	3.51	27.7778
4	17274	3.61	27.7777
4	17952	3.71	27.7777
4	18630	3.81	27.7777
4	19308	3.91	27.7777
4	19994	4.01	27.7777
4	20672	4.11	27.7777
4	21350	4.21	27.7777
4	22028	4.31	27.7777
4	22706	4.41	27.7777
4	23384	4.51	27.7777
4	24062	4.61	27.7777
4	24740	4.71	27.7777
4	25418	4.81	27.7777
4	26096	4.91	27.7777
4	26783	5.01	27.7762
4	27461	5.11	27.6807
4	28139	5.21	27.4586
4	28817	5.31	27.1328
4	29495	5.41	26.7217
4	30173	5.51	26.2408
4	30851	5.61	25.7025
4	31529	5.71	25.1173
4	32207	5.81	24.4934
2	300	1.11	0
2	980	1.21	0
2	1658	1.31	0
2	2337	1.41	0
2	3016	1.51	0
2	3694	1.61	0
2	4372	1.71	0
2	5051	1.81	0
2	5729	1.91	0
2	6418	2.01	0
2	7096	2.11	0
2	7774	2.21	0
2	8452	2.31	0
2	9130	2.41	0
2	9808	2.51	0
2	10486	2.61	0
2	11164	2.71	0
2	11842	2.81	0
2	12520	2.91	0
2	13206	3.01	0
2	13884	3.11	0
2	14562	3.21	0
2	15240	3.31	0
2	15918	3.41	0
2	16596	3.51	0
2	17274	3.61	0
2	17952	3.71	0
2	18630	3.81	0
2	19308	3.91	0
2	19994	4.01	0
2	20672	4.11	0
2	21350	4.21	0
2	22028	4.31	0
2	22706	4.41	0
2	23384	4.51	0
2	24062	4.61	0
2	24740	4.71	0
2	25418	4.81	0
2	26096	4.91	0
2	26783	5.01	0
2	27461	5.11	0
2	28139	5.21	0
2	28817	5.31	0
2	29495	5.41	0
2	30173	5.51	0
2	30851	5.61	0
2	31529	5.71	0
2	32207	5.81	0
1	300	1.11	-1
1	980	1.21	-1
1	1658	1.31	-1
1	2337	1.41	-1
1	3016	1.51	-1
1	3694	1.61	-1
1	4372	1.71	-1
1	5051	1.81	-1
1	5729	1.91	-1
1	6418	2.01	-1
1	7096	2.11	-1
1	7774	2.21	-1
1	8452	2.31	-1
1	9130	2.41	-1
1	9808	2.51	-1
1	10486	2.61	-1
1	11164	2.71	-1
1	11842	2.81	-1
1	12520	2.91	-1
1	13206	3.01	-1
1	13884	3.11	-1
1	14562	3.21	-1
1	15240	3.31	-1
1	15918	3.41	-1
1	16596	3.51	-1
1	17274	3.61	-1
1	17952	3.71	-1
1	18630	3.81	-1
1	19308	3.91	-1
1	19994	4.01	-1
1	20672	4.11	-1
1	21350	4.21	-1
1	22028	4.31	-1
1	22706	4.41	-1
1	23384	4.51	-1
1	24062	4.61	-1
1	24740	4.71	-1
1	25418	4.81	-1
1	26096	4.91	-1
1	26783	5.01	-1
1	27461	5.11	-1
1	28139	5.21	-1
1	28817	5.31	-1
1	29495	5.41	-1
1	30173	5.51	-1
1	30851	5.61	-1
1	31529	5.71	-1
1	32207	5.81	-1
3	300	1.11	0
3	980	1.21	0
3	1658	1.31	0
3	2337	1.41	0
3	3016	1.51	0
3	3694	1.61	0
3	4372	1.71	0
3	5051	1.81	0
3	5729	1.91	0
3	6418	2.01	0
3	7096	2.11	0
3	7774	2.21	0
3	8452	2.31	0
3	9130	2.41	0
3	9808	2.51	0
3	10486	2.61	0
3	11164	2.71	0
3	11842	2.81	0
3	12520	2.91	0
3	13206	3.01	0
3	13884	3.11	0
3	14562	3.21	0
3	15240	3.31	0
3	15918	3.41	0
3	16596	3.51	0
3	17274	3.61	0
3	17952	3.71	0
3	18630	3.81	0
3	19308	3.91	0
3	19994	4.01	0
3	20672	4.11	0
3	21350	4.21	0
3	22028	4.31	0
3	22706	4.41	0
3	23384	4.51	0
3	24062	4.61	0
3	24740	4.71	0
3	25418	4.81	0
3	26096	4.91	0
3	26783	5.01	0
3	27461	5.11	0
3	28139	5.21	0
3	28817	5.31	0
3	29495	5.41	0
3	30173	5.51	0
3	30851	5.61	0
3	31529	5.71	0
3	32207	5.81	0
11	6260	2	0
11	13050	3	0
11	19838	4	0
11	26627	5	0
10	6260	2	0.044249
10	13050	3	0.04921
10	19838	4	0.04921
10	26627	5	0.04921
9	6260	2	0
9	13050	3	0
9	19838	4	0
9	26627	5	0
31	301	1.11	0
31	981	1.21	-0.00217285
31	1659	1.31	-0.00213775
31	2338	1.41	-0.0020631
31	3017	1.51	-0.00195808
31	3695	1.61	-0.00183085
31	4373	1.71	-0.00172846
31	5052	1.81	-0.00157681
31	5730	1.91	-0.00146105
31	6419	2.01	-0.00130536
31	7097	2.11	-0.00115331
31	7775	2.21	-0.00104775
31	8453	2.31	-0.000910733
31	9131	2.41	-0.000783914
31	9809	2.51	-0.000668494
31	10487	2.61	-0.000565227
31	11165	2.71	-0.000474485
31	11843	2.81	-0.000396326
31	12521	2.91	-0.00033054
31	13207	3.01	-0.000236741
31	13885	3.11	-0.000194553
31	14563	3.21	-0.000123291
31	15241	3.31	-0.000102323
31	15919	3.41	-5.07776e-05
31	16597	3.51	-7.92794e-06
31	17275	3.61	2.69549e-05
31	17953	3.71	1.46558e-05
31	18631	3.81	3.61469e-05
31	19309	3.91	5.21747e-05
31	19995	4.01	6.3421e-05
31	20673	4.11	7.05393e-05
31	21351	4.21	7.41479e-05
31	22029	4.31	7.48229e-05
31	22707	4.41	7.30949e-05
31	23385	4.51	6.94465e-05
31	24063	4.61	6.4311e-05
31	24741	4.71	5.80739e-05
31	25419	4.81	5.10725e-05
31	26097	4.91	4.35991e-05
31	26784	5.01	3.59033e-05
31	27462	5.11	-8.02461
31	28140	5.21	-8.06069
31	28818	5.31	-8.09024
31	29496	5.41	-8.11414
31	30174	5.51	-8.13332
31	30852	5.61	-8.14841
31	31530	5.71	-8.16003
31	32208	5.81	-8.16873
30	301	1.11	0
30	981	1.21	-0.00020453
30	1659	1.31	-0.000554877
30	2338	1.41	-0.000832247
30	3017	1.51	-0.00104351
30	3695	1.61	-0.00119586
30	4373	1.71	-0.00130032
30	5052	1.81	-0.00136297
30	5730	1.91	-0.00139051
30	6419	2.01	-0.00138854
30	7097	2.11	-0.00135929
30	7775	2.21	-0.00131236
30	8453	2.31	-0.00125193
30	9131	2.41	-0.0011787
30	9809	2.51	-0.00109691
30	10487	2.61	-0.00101022
30	11165	2.71	-0.000921739
30	11843	2.81	-0.000834034
30	12521	2.91	-0.000749208
30	13207	3.01	-0.000665159
30	13885	3.11	-0.000584221
30	14563	3.21	-0.000507502
30	15241	3.31	-0.000436504
30	15919	3.41	-0.00037161
30	16597	3.51	-0.00030993
30	17275	3.61	-0.000252384
30	17953	3.71	-0.000203358
30	18631	3.81	-0.000162163
30	19309	3.91	-0.000125022
30	19995	4.01	-9.21226e-05
30	20673	4.11	-6.35018e-05
30	21351	4.21	-3.90742e-05
30	22029	4.31	-1.8663e-05
30	22707	4.41	-2.02385e-06
30	23385	4.51	1.11347e-05
30	24063	4.61	2.11338e-05
30	24741	4.71	2.83102e-05
30	25419	4.81	3.30049e-05
30	26097	4.91	3.55541e-05
30	26784	5.01	3.62819e-05
30	27462	5.11	-0.756117
30	28140	5.21	-2.065
30	28818	5.31	-3.14467
30	29496	5.41	-4.0352
30	30174	5.51	-4.76963
30	30852	5.61	-5.3752
30	31530	5.71	-5.87439
30	32208	5.81	-6.28572
29	301	1.11	242.45
29	981	1.21	242.45
29	1659	1.31	242.45
29	2338	1.41	242.45
29	3017	1.51	242.45
29	3695	1.61	242.45
29	4373	1.71	242.45
29	5052	1.81	242.45
29	5730	1.91	242.45
29	6419	2.01	242.45
29	7097	2.11	242.45
29	7775	2.21	242.45
29	8453	2.31	242.45
29	9131	2.41	242.45
29	9809	2.51	242.45
29	10487	2.61	242.45
29	11165	2.71	242.45
29	11843	2.81	242.45
29	12521	2.91	242.45
29	13207	3.01	242.45
29	13885	3.11	242.45
29	14563	3.21	242.45
29	15241	3.31	242.45
29	15919	3.41	242.45
29	16597	3.51	242.45
29	17275	3.61	242.45
29	17953	3.71	242.45
29	18631	3.81	242.45
29	19309	3.91	242.45
29	19995	4.01	242.45
29	20673	4.11	242.45
29	21351	4.21	242.45
29	22029	4.31	242.45
29	22707	4.41	242.45
29	23385	4.51	242.45
29	24063	4.61	242.45
29	24741	4.71	242.45
29	25419	4.81	242.45
29	26097	4.91	242.45
29	26784	5.01	242.45
29	27462	5.11	242.45
29	28140	5.21	242.45
29	28818	5.31	242.45
29	29496	5.41	242.45
29	30174	5.51	242.45
29	30852	5.61	242.45
29	31530	5.71	242.45
29	32208	5.81	242.45
28	301	1.11	64.9402
28	981	1.21	67.7182
28	1659	1.31	70.4962
28	2338	1.41	73.2742
28	3017	1.51	76.0522
28	3695	1.61	78.8301
28	4373	1.71	81.6081
28	5052	1.81	84.3861
28	5730	1.91	87.164
28	6419	2.01	89.9419
28	7097	2.11	92.7198
28	7775	2.21	95.4977
28	8453	2.31	98.2756
28	9131	2.41	101.053
28	9809	2.51	103.831
28	10487	2.61	106.609
28	11165	2.71	109.387
28	11843	2.81	112.165
28	12521	2.91	114.943
28	13207	3.01	117.72
28	13885	3.11	120.498
28	14563	3.21	123.276
28	15241	3.31	126.054
28	15919	3.41	128.832
28	16597	3.51	131.609
28	17275	3.61	134.387
28	17953	3.71	137.165
28	18631	3.81	139.943
28	19309	3.91	142.721
28	19995	4.01	145.498
28	20673	4.11	148.276
28	21351	4.21	151.054
28	22029	4.31	153.832
28	22707	4.41	156.609
28	23385	4.51	159.387
28	24063	4.61	162.165
28	24741	4.71	164.943
28	25419	4.81	167.72
28	26097	4.91	170.498
28	26784	5.01	173.276
28	27462	5.11	176.053
28	28140	5.21	178.822
28	28818	5.31	181.57
28	29496	5.41	184.287
28	30174	5.51	186.962
28	30852	5.61	189.59
28	31530	5.71	192.164
28	32208	5.81	194.679
27	301	1.11	27.78
27	981	1.21	27.78
27	1659	1.31	27.78
27	2338	1.41	27.7799
27	3017	1.51	27.7798
27	3695	1.61	27.7797
27	4373	1.71	27.7795
27	5052	1.81	27.7794
27	5730	1.91	27.7793
27	6419	2.01	27.7791
27	7097	2.11	27.779
27	7775	2.21	27.7789
27	8453	2.31	27.7787
27	9131	2.41	27.7786
27	9809	2.51	27.7785
27	10487	2.61	27.7784
27	11165	2.71	27.7783
27	11843	2.81	27.7782
27	12521	2.91	27.7781
27	13207	3.01	27.7781
27	13885	3.11	27.778
27	14563	3.21	27.7779
27	15241	3.31	27.7779
27	15919	3.41	27.7779
27	16597	3.51	27.7778
27	17275	3.61	27.7778
27	17953	3.71	27.7778
27	18631	3.81	27.7778
27	19309	3.91	27.7777
27	19995	4.01	27.7777
27	20673	4.11	27.7777
27	21351	4.21	27.7777
27	22029	4.31	27.7777
27	22707	4.41	27.7777
27	23385	4.51	27.7777
27	24063	4.61	27.7777
27	24741	4.71	27.7777
27	25419	4.81	27.7777
27	26097	4.91	27.7777
27	26784	5.01	27.7777
27	27462	5.11	27.7548
27	28140	5.21	27.6051
27	28818	5.31	27.3375
27	29496	5.41	26.9727
27	30174	5.51	26.5276
27	30852	5.61	26.0164
27	31530	5.71	25.4506
27	32208	5.81	24.8399
25	301	1.11	-1.84044e-05
25	981	1.21	-6.64177e-05
25	1659	1.31	-0.000108668
25	2338	1.41	-0.000141747
25	3017	1.51	-0.000166792
25	3695	1.61	-0.000184985
25	4373	1.71	-0.000197375
25	5052	1.81	-0.00020455
25	5730	1.91	-0.000207455
25	6419	2.01	-0.000206581
25	7097	2.11	-0.000202844
25	7775	2.21	-0.000196962
25	8453	2.31	-0.000189097
25	9131	2.41	-0.000179826
25	9809	2.51	-0.000169655
25	10487	2.61	-0.00015895
25	11165	2.71	-0.000147955
25	11843	2.81	-0.000136808
25	12521	2.91	-0.000125559
25	13207	3.01	-0.000114298
25	13885	3.11	-0.000103458
25	14563	3.21	-9.29722e-05
25	15241	3.31	-8.30799e-05
25	15919	3.41	-7.35615e-05
25	16597	3.51	-6.46513e-05
25	17275	3.61	-5.65558e-05
25	17953	3.71	-4.92796e-05
25	18631	3.81	-4.23588e-05
25	19309	3.91	-3.58436e-05
25	19995	4.01	-2.98078e-05
25	20673	4.11	-2.42806e-05
25	21351	4.21	-1.9258e-05
25	22029	4.31	-1.47126e-05
25	22707	4.41	-1.06009e-05
25	23385	4.51	-6.86988e-06
25	24063	4.61	-3.46133e-06
25	24741	4.71	-3.15929e-07
25	25419	4.81	2.62407e-06
25	26097	4.91	5.41281e-06
25	26784	5.01	-0.00156054
25	27462	5.11	-0.0740622
25	28140	5.21	-0.146457
25	28818	5.31	-0.204758
25	29496	5.41	-0.250969
25	30174	5.51	-0.286831
25	30852	5.61	-0.31386
25	31530	5.71	-0.333372
25	32208	5.81	-0.346511
24	301	1.11	5
24	981	1.21	5
24	1659	1.31	4.99999
24	2338	1.41	4.99997
24	3017	1.51	4.99996
24	3695	1.61	4.99994
24	4373	1.71	4.99992
24	5052	1.81	4.9999
24	5730	1.91	4.99988
24	6419	2.01	4.99986
24	7097	2.11	4.99984
24	7775	2.21	4.99982
24	8453	2.31	4.9998
24	9131	2.41	4.99978
24	9809	2.51	4.99976
24	10487	2.61	4.99975
24	11165	2.71	4.99973
24	11843	2.81	4.99972
24	12521	2.91	4.99971
24	13207	3.01	4.99969
24	13885	3.11	4.99968
24	14563	3.21	4.99967
24	15241	3.31	4.99966
24	15919	3.41	4.99966
24	16597	3.51	4.99965
24	17275	3.61	4.99964
24	17953	3.71	4.99964
24	18631	3.81	4.99963
24	19309	3.91	4.99963
24	19995	4.01	4.99963
24	20673	4.11	4.99962
24	21351	4.21	4.99962
24	22029	4.31	4.99962
24	22707	4.41	4.99962
24	23385	4.51	4.99962
24	24063	4.61	4.99962
24	24741	4.71	4.99962
24	25419	4.81	4.99962
24	26097	4.91	4.99962
24	26784	5.01	4.99961
24	27462	5.11	4.99625
24	28140	5.21	4.9851
24	28818	5.31	4.96744
24	29496	5.41	4.94456
24	30174	5.51	4.91759
24	30852	5.61	4.88749
24	31530	5.71	4.85507
24	32208	5.81	4.82103
26	301	1.11	1
26	981	1.21	1
26	1659	1.31	1
26	2338	1.41	1
26	3017	1.51	1
26	3695	1.61	1
26	4373	1.71	1
26	5052	1.81	1
26	5730	1.91	1
26	6419	2.01	1
26	7097	2.11	1
26	7775	2.21	1
26	8453	2.31	1
26	9131	2.41	1
26	9809	2.51	1
26	10487	2.61	1
26	11165	2.71	1
26	11843	2.81	1
26	12521	2.91	1
26	13207	3.01	1
26	13885	3.11	1
26	14563	3.21	1
26	15241	3.31	1
26	15919	3.41	1
26	16597	3.51	1
26	17275	3.61	1
26	17953	3.71	1
26	18631	3.81	1
26	19309	3.91	1
26	19995	4.01	1
26	20673	4.11	1
26	21351	4.21	1
26	22029	4.31	1
26	22707	4.41	1
26	23385	4.51	1
26	24063	4.61	1
26	24741	4.71	1
26	25419	4.81	1
26	26097	4.91	1
26	26784	5.01	1
26	27462	5.11	1
26	28140	5.21	1
26	28818	5.31	1
26	29496	5.41	1
26	30174	5.51	1
26	30852	5.61	1
26	31530	5.71	1
26	32208	5.81	1
38	1313	1.255176248855	0.099922843422
38	1992	1.355203092278	0.100026843423
38	2671	1.455216935699	0.100013843421
38	3349	1.55524377912	0.100026843421
38	4027	1.65521862254	0.09997484342
38	4706	1.755180465959	0.099961843419
38	5384	1.855207309378	0.100026843419
38	6063	1.955247152797	0.100039843419
38	6751	2.055234996215	0.099987843418
38	7429	2.155222839634	0.099987843419
38	8107	2.255249683052	0.100026843418
38	8785	2.355172526469	0.099922843417
38	9463	2.455173369884	0.100000843415
38	10141	2.555252213299	0.100078843415
38	10819	2.655266056714	0.100013843415
38	11497	2.755214900129	0.099948843415
38	12175	2.855189743544	0.099974843415
38	12853	2.955229586958	0.100039843414
38	13539	3.055204430373	0.099974843415
38	14217	3.155231273786	0.100026843413
38	14895	3.255219117199	0.099987843413
38	15573	3.355232960612	0.100013843413
38	16251	3.455220804024	0.099987843412
38	16929	3.555169647436	0.099948843412
38	17607	3.655170490847	0.100000843411
38	18285	3.755236334258	0.100065843411
38	18963	3.855211177668	0.09997484341
38	19641	3.955264021078	0.10005284341
38	20327	4.055264864486	0.100000843408
38	21005	4.155187707893	0.099922843407
38	21683	4.255214551301	0.100026843408
38	22361	4.355163394708	0.099948843407
38	23039	4.455229238115	0.100065843407
38	23717	4.555217081522	0.099987843407
38	24395	4.655256924928	0.100039843406
38	25073	4.755205768333	0.099948843405
38	25751	4.855219611739	0.100013843406
38	26429	4.955168455144	0.099948843405
38	27116	5.055182298545	0.100013843401
38	27794	5.155170141894	0.099987843349
38	28472	5.255261985113	0.100091843219
38	29150	5.355223828116	0.099961843003
38	29828	5.455250670813	0.100026842697
38	30506	5.555238513137	0.099987842324
38	31184	5.65518735503	0.099948841893
38	31862	5.755240196454	0.100052841424
38	32540	5.85525403739	0.100013840936
37	1313	1.255176248855	0.099922843422
37	1992	1.355203092278	0.100026843423
37	2671	1.455216935699	0.100013843421
37	3349	1.55524377912	0.100026843421
37	4027	1.65521862254	0.09997484342
37	4706	1.755180465959	0.099961843419
37	5384	1.855207309378	0.100026843419
37	6063	1.955247152797	0.100039843419
37	6751	2.055234996215	0.099987843418
37	7429	2.155222839634	0.099987843419
37	8107	2.255249683052	0.100026843418
37	8785	2.355172526469	0.099922843417
37	9463	2.455173369884	0.100000843415
37	10141	2.555252213299	0.100078843415
37	10819	2.655266056714	0.100013843415
37	11497	2.755214900129	0.099948843415
37	12175	2.855189743544	0.099974843415
37	12853	2.955229586958	0.100039843414
37	13539	3.055204430373	0.099974843415
37	14217	3.155231273786	0.100026843413
37	14895	3.255219117199	0.099987843413
37	15573	3.355232960612	0.100013843413
37	16251	3.455220804024	0.099987843412
37	16929	3.555169647436	0.099948843412
37	17607	3.655170490847	0.100000843411
37	18285	3.755236334258	0.100065843411
37	18963	3.855211177668	0.09997484341
37	19641	3.955264021078	0.10005284341
37	20327	4.055264864486	0.100000843408
37	21005	4.155187707893	0.099922843407
37	21683	4.255214551301	0.100026843408
37	22361	4.355163394708	0.099948843407
37	23039	4.455229238115	0.100065843407
37	23717	4.555217081522	0.099987843407
37	24395	4.655256924928	0.100039843406
37	25073	4.755205768333	0.099948843405
37	25751	4.855219611739	0.100013843406
37	26429	4.955168455144	0.099948843405
37	27116	5.055182298545	0.100013843401
37	27794	5.155170141894	0.099987843349
37	28472	5.255261985113	0.100091843219
37	29150	5.355223828116	0.099961843003
37	29828	5.455250670813	0.100026842697
37	30506	5.555238513137	0.099987842324
37	31184	5.65518735503	0.099948841893
37	31862	5.755240196454	0.100052841424
37	32540	5.85525403739	0.100013840936
36	1313	1.255176248855	1
36	1992	1.355203092278	1
36	2671	1.455216935699	1
36	3349	1.55524377912	1
36	4027	1.65521862254	1
36	4706	1.755180465959	1
36	5384	1.855207309378	1
36	6063	1.955247152797	1
36	6751	2.055234996215	1
36	7429	2.155222839634	1
36	8107	2.255249683052	1
36	8785	2.355172526469	1
36	9463	2.455173369884	1
36	10141	2.555252213299	1
36	10819	2.655266056714	1
36	11497	2.755214900129	1
36	12175	2.855189743544	1
36	12853	2.955229586958	1
36	13539	3.055204430373	1
36	14217	3.155231273786	1
36	14895	3.255219117199	1
36	15573	3.355232960612	1
36	16251	3.455220804024	1
36	16929	3.555169647436	1
36	17607	3.655170490847	1
36	18285	3.755236334258	1
36	18963	3.855211177668	1
36	19641	3.955264021078	1
36	20327	4.055264864486	1
36	21005	4.155187707893	1
36	21683	4.255214551301	1
36	22361	4.355163394708	1
36	23039	4.455229238115	1
36	23717	4.555217081522	1
36	24395	4.655256924928	1
36	25073	4.755205768333	1
36	25751	4.855219611739	1
36	26429	4.955168455144	1
36	27116	5.055182298545	1
36	27794	5.155170141894	1
36	28472	5.255261985113	1
36	29150	5.355223828116	1
36	29828	5.455250670813	1
36	30506	5.555238513137	1
36	31184	5.65518735503	1
36	31862	5.755240196454	1
36	32540	5.85525403739	1
35	1313	1.255176248855	1
35	1992	1.355203092278	1
35	2671	1.455216935699	1
35	3349	1.55524377912	1
35	4027	1.65521862254	1
35	4706	1.755180465959	1
35	5384	1.855207309378	1
35	6063	1.955247152797	1
35	6751	2.055234996215	1
35	7429	2.155222839634	1
35	8107	2.255249683052	1
35	8785	2.355172526469	1
35	9463	2.455173369884	1
35	10141	2.555252213299	1
35	10819	2.655266056714	1
35	11497	2.755214900129	1
35	12175	2.855189743544	1
35	12853	2.955229586958	1
35	13539	3.055204430373	1
35	14217	3.155231273786	1
35	14895	3.255219117199	1
35	15573	3.355232960612	1
35	16251	3.455220804024	1
35	16929	3.555169647436	1
35	17607	3.655170490847	1
35	18285	3.755236334258	1
35	18963	3.855211177668	1
35	19641	3.955264021078	1
35	20327	4.055264864486	1
35	21005	4.155187707893	1
35	21683	4.255214551301	1
35	22361	4.355163394708	1
35	23039	4.455229238115	1
35	23717	4.555217081522	1
35	24395	4.655256924928	1
35	25073	4.755205768333	1
35	25751	4.855219611739	1
35	26429	4.955168455144	1
35	27116	5.055182298545	1
35	27794	5.155170141894	1
35	28472	5.255261985113	1
35	29150	5.355223828116	1
35	29828	5.455250670813	1
35	30506	5.555238513137	1
35	31184	5.65518735503	1
35	31862	5.755240196454	1
35	32540	5.85525403739	1
34	6261	2	0
34	13051	3	0
34	19839	4	0
34	26628	5	0
33	6261	2	0.044249
33	13051	3	0.04921
33	19839	4	0.04921
33	26628	5	0.04921
32	6261	2	1
32	13051	3	1
32	19839	4	1
32	26628	5	1
54	302	1.11	0
54	982	1.21	-0.0010837
54	1660	1.31	-0.00214672
54	2339	1.41	-0.00210899
54	3018	1.51	-0.00199895
54	3696	1.61	-0.00188684
54	4374	1.71	-0.00179156
54	5053	1.81	-0.00166078
54	5731	1.91	-0.00151097
54	6420	2.01	-0.00139783
54	7098	2.11	-0.00123575
54	7776	2.21	-0.00108868
54	8454	2.31	-0.000989758
54	9132	2.41	-0.00085101
54	9810	2.51	-0.000724237
54	10488	2.61	-0.000610726
54	11166	2.71	-0.000511245
54	11844	2.81	-0.000426122
54	12522	2.91	-0.000355318
54	13208	3.01	-0.000288496
54	13886	3.11	-0.000195139
54	14564	3.21	-0.000154903
54	15242	3.31	-0.000116852
54	15920	3.41	-7.02455e-05
54	16598	3.51	-1.41506e-05
54	17276	3.61	2.25504e-06
54	17954	3.71	2.98845e-05
54	18632	3.81	3.95301e-05
54	19310	3.91	6.22894e-05
54	19996	4.01	4.90476e-05
54	20674	4.11	6.06845e-05
54	21352	4.21	6.78939e-05
54	22030	4.31	7.13348e-05
54	22708	4.41	7.1629e-05
54	23386	4.51	6.93546e-05
54	24064	4.61	6.50405e-05
54	24742	4.71	5.91649e-05
54	25420	4.81	5.21533e-05
54	26098	4.91	4.43795e-05
54	26785	5.01	3.61673e-05
54	27463	5.11	-4.00459
54	28141	5.21	-8.04176
54	28819	5.31	-8.08929
54	29497	5.41	-8.12824
54	30175	5.51	-8.15985
54	30853	5.61	-8.18528
54	31531	5.71	-8.20546
54	32209	5.81	-8.2212
53	302	1.11	0
53	982	1.21	-0.000102108
53	1660	1.31	-0.000435534
53	2339	1.41	-0.000739604
53	3018	1.51	-0.000972324
53	3696	1.61	-0.00114363
53	4374	1.71	-0.00126629
53	5053	1.81	-0.00134531
53	5731	1.91	-0.0013834
53	6420	2.01	-0.00139361
53	7098	2.11	-0.0013744
53	7776	2.21	-0.00133105
53	8454	2.31	-0.00127644
53	9132	2.41	-0.00120781
53	9810	2.51	-0.00112807
53	10488	2.61	-0.00104154
53	11166	2.71	-0.000951945
53	11844	2.81	-0.000862388
53	12522	2.91	-0.000775446
53	13208	3.01	-0.000692238
53	13886	3.11	-0.000607304
53	14564	3.21	-0.000528914
53	15242	3.31	-0.000456951
53	15920	3.41	-0.000390138
53	16598	3.51	-0.000325369
53	17276	3.61	-0.000267798
53	17954	3.71	-0.000215301
53	18632	3.81	-0.000170286
53	19310	3.91	-0.000129579
53	19996	4.01	-9.72666e-05
53	20674	4.11	-6.94065e-05
53	21352	4.21	-4.50354e-05
53	22030	4.31	-2.42373e-05
53	22708	4.41	-6.96729e-06
53	23386	4.51	6.91755e-06
53	24064	4.61	1.76322e-05
53	24742	4.71	2.54414e-05
53	25420	4.81	3.06416e-05
53	26098	4.91	3.35459e-05
53	26785	5.01	3.44717e-05
53	27463	5.11	-0.377483
53	28141	5.21	-1.62004
53	28819	5.31	-2.78019
53	29497	5.41	-3.73929
53	30175	5.51	-4.5321
53	30853	5.61	-5.18732
53	31531	5.71	-5.72869
53	32209	5.81	-6.17583
52	302	1.11	242.45
52	982	1.21	242.45
52	1660	1.31	242.45
52	2339	1.41	242.45
52	3018	1.51	242.45
52	3696	1.61	242.45
52	4374	1.71	242.45
52	5053	1.81	242.45
52	5731	1.91	242.45
52	6420	2.01	242.45
52	7098	2.11	242.45
52	7776	2.21	242.45
52	8454	2.31	242.45
52	9132	2.41	242.45
52	9810	2.51	242.45
52	10488	2.61	242.45
52	11166	2.71	242.45
52	11844	2.81	242.45
52	12522	2.91	242.45
52	13208	3.01	242.45
52	13886	3.11	242.45
52	14564	3.21	242.45
52	15242	3.31	242.45
52	15920	3.41	242.45
52	16598	3.51	242.45
52	17276	3.61	242.45
52	17954	3.71	242.45
52	18632	3.81	242.45
52	19310	3.91	242.45
52	19996	4.01	242.45
52	20674	4.11	242.45
52	21352	4.21	242.45
52	22030	4.31	242.45
52	22708	4.41	242.45
52	23386	4.51	242.45
52	24064	4.61	242.45
52	24742	4.71	242.45
52	25420	4.81	242.45
52	26098	4.91	242.45
52	26785	5.01	242.45
52	27463	5.11	242.45
52	28141	5.21	242.45
52	28819	5.31	242.45
52	29497	5.41	242.45
52	30175	5.51	242.45
52	30853	5.61	242.45
52	31531	5.71	242.45
52	32209	5.81	242.45
51	302	1.11	55.9402
51	982	1.21	58.7182
51	1660	1.31	61.4962
51	2339	1.41	64.2742
51	3018	1.51	67.0522
51	3696	1.61	69.8302
51	4374	1.71	72.6081
51	5053	1.81	75.3861
51	5731	1.91	78.164
51	6420	2.01	80.9419
51	7098	2.11	83.7199
51	7776	2.21	86.4977
51	8454	2.31	89.2756
51	9132	2.41	92.0535
51	9810	2.51	94.8314
51	10488	2.61	97.6092
51	11166	2.71	100.387
51	11844	2.81	103.165
51	12522	2.91	105.943
51	13208	3.01	108.721
51	13886	3.11	111.498
51	14564	3.21	114.276
51	15242	3.31	117.054
51	15920	3.41	119.832
51	16598	3.51	122.609
51	17276	3.61	125.387
51	17954	3.71	128.165
51	18632	3.81	130.943
51	19310	3.91	133.721
51	19996	4.01	136.498
51	20674	4.11	139.276
51	21352	4.21	142.054
51	22030	4.31	144.832
51	22708	4.41	147.609
51	23386	4.51	150.387
51	24064	4.61	153.165
51	24742	4.71	155.943
51	25420	4.81	158.721
51	26098	4.91	161.498
51	26785	5.01	164.276
51	27463	5.11	167.054
51	28141	5.21	169.826
51	28819	5.31	172.582
51	29497	5.41	175.31
51	30175	5.51	178
51	30853	5.61	180.645
51	31531	5.71	183.237
51	32209	5.81	185.773
50	302	1.11	27.78
50	982	1.21	27.78
50	1660	1.31	27.78
50	2339	1.41	27.7799
50	3018	1.51	27.7798
50	3696	1.61	27.7797
50	4374	1.71	27.7796
50	5053	1.81	27.7795
50	5731	1.91	27.7793
50	6420	2.01	27.7792
50	7098	2.11	27.779
50	7776	2.21	27.7789
50	8454	2.31	27.7788
50	9132	2.41	27.7787
50	9810	2.51	27.7785
50	10488	2.61	27.7784
50	11166	2.71	27.7783
50	11844	2.81	27.7782
50	12522	2.91	27.7782
50	13208	3.01	27.7781
50	13886	3.11	27.778
50	14564	3.21	27.778
50	15242	3.31	27.7779
50	15920	3.41	27.7779
50	16598	3.51	27.7778
50	17276	3.61	27.7778
50	17954	3.71	27.7778
50	18632	3.81	27.7778
50	19310	3.91	27.7778
50	19996	4.01	27.7777
50	20674	4.11	27.7777
50	21352	4.21	27.7777
50	22030	4.31	27.7777
50	22708	4.41	27.7777
50	23386	4.51	27.7777
50	24064	4.61	27.7777
50	24742	4.71	27.7777
50	25420	4.81	27.7777
50	26098	4.91	27.7777
50	26785	5.01	27.7777
50	27463	5.11	27.7663
50	28141	5.21	27.6644
50	28819	5.31	27.4368
50	29497	5.41	27.1045
50	30175	5.51	26.6858
50	30853	5.61	26.1955
50	31531	5.71	25.6461
50	32209	5.81	25.048
48	302	1.11	0
48	982	1.21	-3.11046e-06
48	1660	1.31	-1.60333e-05
48	2339	1.41	-2.6551e-05
48	3018	1.51	-3.46454e-05
48	3696	1.61	-4.07777e-05
48	4374	1.71	-4.50243e-05
48	5053	1.81	-4.76084e-05
48	5731	1.91	-4.87738e-05
48	6420	2.01	-4.8937e-05
48	7098	2.11	-4.7919e-05
48	7776	2.21	-4.61824e-05
48	8454	2.31	-4.41075e-05
48	9132	2.41	-4.14367e-05
48	9810	2.51	-3.84454e-05
48	10488	2.61	-3.53514e-05
48	11166	2.71	-3.23091e-05
48	11844	2.81	-2.94161e-05
48	12522	2.91	-2.67197e-05
48	13208	3.01	-2.41384e-05
48	13886	3.11	-2.15918e-05
48	14564	3.21	-1.94626e-05
48	15242	3.31	-1.73529e-05
48	15920	3.41	-1.54505e-05
48	16598	3.51	-1.37735e-05
48	17276	3.61	-1.2277e-05
48	17954	3.71	-1.08562e-05
48	18632	3.81	-9.90707e-06
48	19310	3.91	-9.29382e-06
48	19996	4.01	-8.84794e-06
48	20674	4.11	-8.28639e-06
48	21352	4.21	-7.68827e-06
48	22030	4.31	-7.10942e-06
48	22708	4.41	-6.583e-06
48	23386	4.51	-6.12511e-06
48	24064	4.61	-5.73935e-06
48	24742	4.71	-5.42062e-06
48	25420	4.81	-5.15815e-06
48	26098	4.91	-4.93794e-06
48	26785	5.01	-4.74456e-06
48	27463	5.11	-0.0115098
48	28141	5.21	-0.0593227
48	28819	5.31	-0.0992771
48	29497	5.41	-0.131855
48	30175	5.51	-0.158151
48	30853	5.61	-0.179102
48	31531	5.71	-0.195509
48	32209	5.81	-0.208058
47	302	1.11	5
47	982	1.21	5
47	1660	1.31	5
47	2339	1.41	5
47	3018	1.51	4.99999
47	3696	1.61	4.99999
47	4374	1.71	4.99999
47	5053	1.81	4.99998
47	5731	1.91	4.99998
47	6420	2.01	4.99997
47	7098	2.11	4.99997
47	7776	2.21	4.99996
47	8454	2.31	4.99996
47	9132	2.41	4.99995
47	9810	2.51	4.99995
47	10488	2.61	4.99995
47	11166	2.71	4.99994
47	11844	2.81	4.99994
47	12522	2.91	4.99994
47	13208	3.01	4.99993
47	13886	3.11	4.99993
47	14564	3.21	4.99993
47	15242	3.31	4.99993
47	15920	3.41	4.99993
47	16598	3.51	4.99992
47	17276	3.61	4.99992
47	17954	3.71	4.99992
47	18632	3.81	4.99992
47	19310	3.91	4.99992
47	19996	4.01	4.99992
47	20674	4.11	4.99992
47	21352	4.21	4.99992
47	22030	4.31	4.99992
47	22708	4.41	4.99992
47	23386	4.51	4.99992
47	24064	4.61	4.99991
47	24742	4.71	4.99991
47	25420	4.81	4.99991
47	26098	4.91	4.99991
47	26785	5.01	4.99991
47	27463	5.11	4.9997
47	28141	5.21	4.99612
47	28819	5.31	4.98812
47	29497	5.41	4.97651
47	30175	5.51	4.96196
47	30853	5.61	4.94505
47	31531	5.71	4.92629
47	32209	5.81	4.90608
49	302	1.11	2
49	982	1.21	2
49	1660	1.31	2
49	2339	1.41	2
49	3018	1.51	2
49	3696	1.61	2
49	4374	1.71	2
49	5053	1.81	2
49	5731	1.91	2
49	6420	2.01	2
49	7098	2.11	2
49	7776	2.21	2
49	8454	2.31	2
49	9132	2.41	2
49	9810	2.51	2
49	10488	2.61	2
49	11166	2.71	2
49	11844	2.81	2
49	12522	2.91	2
49	13208	3.01	2
49	13886	3.11	2
49	14564	3.21	2
49	15242	3.31	2
49	15920	3.41	2
49	16598	3.51	2
49	17276	3.61	2
49	17954	3.71	2
49	18632	3.81	2
49	19310	3.91	2
49	19996	4.01	2
49	20674	4.11	2
49	21352	4.21	2
49	22030	4.31	2
49	22708	4.41	2
49	23386	4.51	2
49	24064	4.61	2
49	24742	4.71	2
49	25420	4.81	2
49	26098	4.91	2
49	26785	5.01	2
49	27463	5.11	2
49	28141	5.21	2
49	28819	5.31	2
49	29497	5.41	2
49	30175	5.51	2
49	30853	5.61	2
49	31531	5.71	2
49	32209	5.81	2
61	1106	1.229823915786	0.100000843423
61	1785	1.329824759208	0.100000843422
61	2464	1.429825602631	0.100000843423
61	3142	1.529826446052	0.100000843421
61	3820	1.629827289473	0.100000843421
61	4498	1.729828132893	0.10000084342
61	5177	1.829828976312	0.100000843419
61	5855	1.929829819731	0.100000843419
61	6544	2.02983066315	0.100000843419
61	7222	2.129831506568	0.100000843418
61	7900	2.229832349987	0.100000843419
61	8578	2.329820193404	0.099987843417
61	9256	2.429821036821	0.100000843417
61	9934	2.529821880236	0.100000843415
61	10612	2.629822723651	0.100000843415
61	11290	2.729823567066	0.100000843415
61	11968	2.829824410481	0.100000843415
61	12646	2.929825253896	0.100000843415
61	13332	3.02982609731	0.100000843414
61	14010	3.129826940724	0.100000843414
61	14688	3.229827784137	0.100000843413
61	15366	3.32982862755	0.100000843413
61	16044	3.429829470963	0.100000843413
61	16722	3.529830314375	0.100000843412
61	17400	3.629831157787	0.100000843412
61	18078	3.729832001198	0.100000843411
61	18756	3.829832844608	0.10000084341
61	19434	3.929820688018	0.09998784341
61	20120	4.029821531426	0.100000843408
61	20798	4.129822374834	0.100000843408
61	21476	4.229823218241	0.100000843407
61	22154	4.329824061649	0.100000843408
61	22832	4.429824905057	0.100000843408
61	23510	4.529825748464	0.100000843407
61	24188	4.62982659187	0.100000843406
61	24866	4.729827435276	0.100000843406
61	25544	4.829828278681	0.100000843405
61	26222	4.929829122087	0.100000843406
61	26909	5.029829965492	0.100000843405
61	27587	5.129830808892	0.1000008434
61	28265	5.229831652214	0.100000843322
61	28943	5.329832495363	0.100000843149
61	29621	5.429820338242	0.099987842879
61	30299	5.529821180772	0.10000084253
61	30977	5.629822022885	0.100000842113
61	31655	5.729822864535	0.10000084165
61	32333	5.829823705687	0.100000841152
60	1324	1.255176278876	0.099922843422
60	2003	1.355203122298	0.100026843422
60	2682	1.455216965719	0.100013843421
60	3360	1.55524380914	0.100026843421
60	4038	1.65521865256	0.09997484342
60	4717	1.75518049598	0.09996184342
60	5395	1.855207339399	0.100026843419
60	6074	1.955247182818	0.100039843419
60	6762	2.055235026236	0.099987843418
60	7440	2.155222869655	0.099987843419
60	8118	2.255249713073	0.100026843418
60	8796	2.35517255649	0.099922843417
60	9474	2.455173399905	0.100000843415
60	10152	2.55525224332	0.100078843415
60	10830	2.655266086734	0.100013843414
60	11508	2.755214930149	0.099948843415
60	12186	2.855189773564	0.099974843415
60	12864	2.955229616978	0.100039843414
60	13550	3.055204460393	0.099974843415
60	14228	3.155231303806	0.100026843413
60	14906	3.255219147219	0.099987843413
60	15584	3.355232990632	0.100013843413
60	16262	3.455220834044	0.099987843412
60	16940	3.555169677456	0.099948843412
60	17618	3.655170520867	0.100000843411
60	18296	3.755236364278	0.100065843411
60	18974	3.855211207688	0.09997484341
60	19652	3.955264051098	0.10005284341
60	20338	4.055264894506	0.100000843408
60	21016	4.155187737913	0.099922843407
60	21694	4.255214581321	0.100026843408
60	22372	4.355163424729	0.099948843408
60	23050	4.455229268136	0.100065843407
60	23728	4.555217111543	0.099987843407
60	24406	4.655256954949	0.100039843406
60	25084	4.755205798354	0.099948843405
60	25762	4.85521964176	0.100013843406
60	26440	4.955168485165	0.099948843405
60	27127	5.055182328566	0.100013843401
60	27805	5.15517017191	0.099987843344
60	28483	5.255262015109	0.100091843199
60	29161	5.355223858079	0.09996184297
60	29839	5.455250700733	0.100026842654
60	30517	5.555238543003	0.09998784227
60	31195	5.655187384837	0.099948841834
60	31873	5.755240226196	0.100052841359
60	32551	5.855254067062	0.100013840866
59	1106	1.229823915786	2
59	1785	1.329824759208	2
59	2464	1.429825602631	2
59	3142	1.529826446052	2
59	3820	1.629827289473	2
59	4498	1.729828132893	2
59	5177	1.829828976312	2
59	5855	1.929829819731	2
59	6544	2.02983066315	2
59	7222	2.129831506568	2
59	7900	2.229832349987	2
59	8578	2.329820193404	2
59	9256	2.429821036821	2
59	9934	2.529821880236	2
59	10612	2.629822723651	2
59	11290	2.729823567066	2
59	11968	2.829824410481	2
59	12646	2.929825253896	2
59	13332	3.02982609731	2
59	14010	3.129826940724	2
59	14688	3.229827784137	2
59	15366	3.32982862755	2
59	16044	3.429829470963	2
59	16722	3.529830314375	2
59	17400	3.629831157787	2
59	18078	3.729832001198	2
59	18756	3.829832844608	2
59	19434	3.929820688018	2
59	20120	4.029821531426	2
59	20798	4.129822374834	2
59	21476	4.229823218241	2
59	22154	4.329824061649	2
59	22832	4.429824905057	2
59	23510	4.529825748464	2
59	24188	4.62982659187	2
59	24866	4.729827435276	2
59	25544	4.829828278681	2
59	26222	4.929829122087	2
59	26909	5.029829965492	2
59	27587	5.129830808892	2
59	28265	5.229831652214	2
59	28943	5.329832495363	2
59	29621	5.429820338242	2
59	30299	5.529821180772	2
59	30977	5.629822022885	2
59	31655	5.729822864535	2
59	32333	5.829823705687	2
58	1324	1.255176278876	2
58	2003	1.355203122298	2
58	2682	1.455216965719	2
58	3360	1.55524380914	2
58	4038	1.65521865256	2
58	4717	1.75518049598	2
58	5395	1.855207339399	2
58	6074	1.955247182818	2
58	6762	2.055235026236	2
58	7440	2.155222869655	2
58	8118	2.255249713073	2
58	8796	2.35517255649	2
58	9474	2.455173399905	2
58	10152	2.55525224332	2
58	10830	2.655266086734	2
58	11508	2.755214930149	2
58	12186	2.855189773564	2
58	12864	2.955229616978	2
58	13550	3.055204460393	2
58	14228	3.155231303806	2
58	14906	3.255219147219	2
58	15584	3.355232990632	2
58	16262	3.455220834044	2
58	16940	3.555169677456	2
58	17618	3.655170520867	2
58	18296	3.755236364278	2
58	18974	3.855211207688	2
58	19652	3.955264051098	2
58	20338	4.055264894506	2
58	21016	4.155187737913	2
58	21694	4.255214581321	2
58	22372	4.355163424729	2
58	23050	4.455229268136	2
58	23728	4.555217111543	2
58	24406	4.655256954949	2
58	25084	4.755205798354	2
58	25762	4.85521964176	2
58	26440	4.955168485165	2
58	27127	5.055182328566	2
58	27805	5.15517017191	2
58	28483	5.255262015109	2
58	29161	5.355223858079	2
58	29839	5.455250700733	2
58	30517	5.555238543003	2
58	31195	5.655187384837	2
58	31873	5.755240226196	2
58	32551	5.855254067062	2
57	6262	2	0
57	13052	3	0
57	19840	4	0
57	26629	5	0
56	6262	2	0.044249
56	13052	3	0.04921
56	19840	4	0.04921
56	26629	5	0.04921
55	6262	2	2
55	13052	3	2
55	19840	4	2
55	26629	5	2
77	303	1.11	0
77	983	1.21	-0.0010837
77	1661	1.31	-0.00159829
77	2340	1.41	-0.00208405
77	3019	1.51	-0.00202689
77	3697	1.61	-0.00191566
77	4375	1.71	-0.00180058
77	5054	1.81	-0.00167545
77	5732	1.91	-0.00156764
77	6421	2.01	-0.00140832
77	7099	2.11	-0.00126818
77	7777	2.21	-0.0011463
77	8455	2.31	-0.000996315
77	9133	2.41	-0.000876369
77	9811	2.51	-0.000773132
77	10489	2.61	-0.00065313
77	11167	2.71	-0.000547506
77	11845	2.81	-0.000456872
77	12523	2.91	-0.000381393
77	13209	3.01	-0.000280949
77	13887	3.11	-0.000230191
77	14565	3.21	-0.000163263
77	15243	3.31	-0.000109864
77	15921	3.41	-8.39639e-05
77	16599	3.51	-2.96202e-05
77	17277	3.61	-5.83572e-06
77	17955	3.71	1.31974e-05
77	18633	3.81	4.35293e-05
77	19311	3.91	6.09207e-05
77	19997	4.01	8.14612e-05
77	20675	4.11	5.09868e-05
77	21353	4.21	6.06345e-05
77	22031	4.31	6.60859e-05
77	22709	4.41	6.79811e-05
77	23387	4.51	6.69282e-05
77	24065	4.61	6.34941e-05
77	24743	4.71	5.81996e-05
77	25421	4.81	5.15149e-05
77	26099	4.91	4.38587e-05
77	26786	5.01	3.55979e-05
77	27464	5.11	-4.00458
77	28142	5.21	-6.01338
77	28820	5.31	-8.05874
77	29498	5.41	-8.10683
77	30176	5.51	-8.14629
77	30854	5.61	-8.17839
77	31532	5.71	-8.20428
77	32210	5.81	-8.22491
76	303	1.11	0
76	983	1.21	-0.000102108
76	1661	1.31	-0.000364416
76	2340	1.41	-0.000668348
76	3019	1.51	-0.000917148
76	3697	1.61	-0.00110276
76	4375	1.71	-0.00123413
76	5054	1.81	-0.00132051
76	5732	1.91	-0.00137112
76	6421	2.01	-0.00138552
76	7099	2.11	-0.00137171
76	7777	2.21	-0.00133728
76	8455	2.31	-0.00128299
76	9133	2.41	-0.00121608
76	9811	2.51	-0.00114204
76	10489	2.61	-0.00105965
76	11167	2.71	-0.000972483
76	11845	2.81	-0.000884077
76	12523	2.91	-0.00079738
76	13209	3.01	-0.000708952
76	13887	3.11	-0.000625437
76	14565	3.21	-0.000545541
76	15243	3.31	-0.000469187
76	15921	3.41	-0.000401859
76	16599	3.51	-0.000337073
76	17277	3.61	-0.000278927
76	17955	3.71	-0.000226835
76	18633	3.81	-0.000179347
76	19311	3.91	-0.000136891
76	19997	4.01	-9.82802e-05
76	20675	4.11	-7.11237e-05
76	21353	4.21	-4.76758e-05
76	22031	4.31	-2.73123e-05
76	22709	4.41	-1.01429e-05
76	23387	4.51	3.85347e-06
76	24065	4.61	1.47977e-05
76	24743	4.71	2.28847e-05
76	25421	4.81	2.83608e-05
76	26099	4.91	3.15056e-05
76	26786	5.01	3.26162e-05
76	27464	5.11	-0.377484
76	28142	5.21	-1.35705
76	28820	5.31	-2.52721
76	29498	5.41	-3.5286
76	30176	5.51	-4.35737
76	30854	5.61	-5.04318
76	31532	5.71	-5.61058
76	32210	5.81	-6.07987
75	303	1.11	242.45
75	983	1.21	242.45
75	1661	1.31	242.45
75	2340	1.41	242.45
75	3019	1.51	242.45
75	3697	1.61	242.45
75	4375	1.71	242.45
75	5054	1.81	242.45
75	5732	1.91	242.45
75	6421	2.01	242.45
75	7099	2.11	242.45
75	7777	2.21	242.45
75	8455	2.31	242.45
75	9133	2.41	242.45
75	9811	2.51	242.45
75	10489	2.61	242.45
75	11167	2.71	242.45
75	11845	2.81	242.45
75	12523	2.91	242.45
75	13209	3.01	242.45
75	13887	3.11	242.45
75	14565	3.21	242.45
75	15243	3.31	242.45
75	15921	3.41	242.45
75	16599	3.51	242.45
75	17277	3.61	242.45
75	17955	3.71	242.45
75	18633	3.81	242.45
75	19311	3.91	242.45
75	19997	4.01	242.45
75	20675	4.11	242.45
75	21353	4.21	242.45
75	22031	4.31	242.45
75	22709	4.41	242.45
75	23387	4.51	242.45
75	24065	4.61	242.45
75	24743	4.71	242.45
75	25421	4.81	242.45
75	26099	4.91	242.45
75	26786	5.01	242.45
75	27464	5.11	242.45
75	28142	5.21	242.45
75	28820	5.31	242.45
75	29498	5.41	242.45
75	30176	5.51	242.45
75	30854	5.61	242.45
75	31532	5.71	242.45
75	32210	5.81	242.45
74	303	1.11	46.9402
74	983	1.21	49.7182
74	1661	1.31	52.4962
74	2340	1.41	55.2742
74	3019	1.51	58.0522
74	3697	1.61	60.8302
74	4375	1.71	63.6081
74	5054	1.81	66.3861
74	5732	1.91	69.164
74	6421	2.01	71.942
74	7099	2.11	74.7199
74	7777	2.21	77.4978
74	8455	2.31	80.2757
74	9133	2.41	83.0535
74	9811	2.51	85.8314
74	10489	2.61	88.6092
74	11167	2.71	91.3871
74	11845	2.81	94.1649
74	12523	2.91	96.9427
74	13209	3.01	99.7206
74	13887	3.11	102.498
74	14565	3.21	105.276
74	15243	3.31	108.054
74	15921	3.41	110.832
74	16599	3.51	113.61
74	17277	3.61	116.387
74	17955	3.71	119.165
74	18633	3.81	121.943
74	19311	3.91	124.721
74	19997	4.01	127.498
74	20675	4.11	130.276
74	21353	4.21	133.054
74	22031	4.31	135.832
74	22709	4.41	138.61
74	23387	4.51	141.387
74	24065	4.61	144.165
74	24743	4.71	146.943
74	25421	4.81	149.721
74	26099	4.91	152.498
74	26786	5.01	155.276
74	27464	5.11	158.054
74	28142	5.21	160.827
74	28820	5.31	163.585
74	29498	5.41	166.318
74	30176	5.51	169.015
74	30854	5.61	171.668
74	31532	5.71	174.271
74	32210	5.81	176.818
73	303	1.11	27.78
73	983	1.21	27.78
73	1661	1.31	27.78
73	2340	1.41	27.7799
73	3019	1.51	27.7798
73	3697	1.61	27.7797
73	4375	1.71	27.7796
73	5054	1.81	27.7795
73	5732	1.91	27.7794
73	6421	2.01	27.7792
73	7099	2.11	27.7791
73	7777	2.21	27.7789
73	8455	2.31	27.7788
73	9133	2.41	27.7787
73	9811	2.51	27.7786
73	10489	2.61	27.7785
73	11167	2.71	27.7784
73	11845	2.81	27.7783
73	12523	2.91	27.7782
73	13209	3.01	27.7781
73	13887	3.11	27.778
73	14565	3.21	27.778
73	15243	3.31	27.7779
73	15921	3.41	27.7779
73	16599	3.51	27.7779
73	17277	3.61	27.7778
73	17955	3.71	27.7778
73	18633	3.81	27.7778
73	19311	3.91	27.7778
73	19997	4.01	27.7778
73	20675	4.11	27.7777
73	21353	4.21	27.7777
73	22031	4.31	27.7777
73	22709	4.41	27.7777
73	23387	4.51	27.7777
73	24065	4.61	27.7777
73	24743	4.71	27.7777
73	25421	4.81	27.7777
73	26099	4.91	27.7777
73	26786	5.01	27.7777
73	27464	5.11	27.7663
73	28142	5.21	27.6748
73	28820	5.31	27.4746
73	29498	5.41	27.1652
73	30176	5.51	26.7655
73	30854	5.61	26.2909
73	31532	5.71	25.7545
73	32210	5.81	25.1669
71	303	1.11	0
71	983	1.21	-6.39488e-13
71	1661	1.31	-2.80385e-06
71	2340	1.41	-1.03739e-05
71	3019	1.51	-1.66724e-05
71	3697	1.61	-2.14136e-05
71	4375	1.71	-2.50143e-05
71	5054	1.81	-2.78573e-05
71	5732	1.91	-2.97229e-05
71	6421	2.01	-3.07004e-05
71	7099	2.11	-3.12848e-05
71	7777	2.21	-3.11311e-05
71	8455	2.31	-3.04692e-05
71	9133	2.41	-2.97866e-05
71	9811	2.51	-2.87058e-05
71	10489	2.61	-2.71124e-05
71	11167	2.71	-2.51961e-05
71	11845	2.81	-2.31035e-05
71	12523	2.91	-2.09416e-05
71	13209	3.01	-1.90336e-05
71	13887	3.11	-1.73663e-05
71	14565	3.21	-1.56225e-05
71	15243	3.31	-1.42109e-05
71	15921	3.41	-1.3052e-05
71	16599	3.51	-1.19089e-05
71	17277	3.61	-1.07663e-05
71	17955	3.71	-9.65605e-06
71	18633	3.81	-8.6255e-06
71	19311	3.91	-7.83452e-06
71	19997	4.01	-7.4189e-06
71	20675	4.11	-7.32065e-06
71	21353	4.21	-7.09885e-06
71	22031	4.31	-6.81098e-06
71	22709	4.41	-6.4974e-06
71	23387	4.51	-6.18486e-06
71	24065	4.61	-5.88945e-06
71	24743	4.71	-5.6192e-06
71	25421	4.81	-5.37627e-06
71	26099	4.91	-5.1587e-06
71	26786	5.01	-4.96191e-06
71	27464	5.11	-4.78747e-06
71	28142	5.21	-0.0103707
71	28820	5.31	-0.0378045
71	29498	5.41	-0.0606899
71	30176	5.51	-0.0797079
71	30854	5.61	-0.0954367
71	31532	5.71	-0.108368
71	32210	5.81	-0.118918
70	303	1.11	5
70	983	1.21	5
70	1661	1.31	5
70	2340	1.41	5
70	3019	1.51	5
70	3697	1.61	5
70	4375	1.71	4.99999
70	5054	1.81	4.99999
70	5732	1.91	4.99999
70	6421	2.01	4.99999
70	7099	2.11	4.99998
70	7777	2.21	4.99998
70	8455	2.31	4.99998
70	9133	2.41	4.99997
70	9811	2.51	4.99997
70	10489	2.61	4.99997
70	11167	2.71	4.99996
70	11845	2.81	4.99996
70	12523	2.91	4.99996
70	13209	3.01	4.99996
70	13887	3.11	4.99996
70	14565	3.21	4.99995
70	15243	3.31	4.99995
70	15921	3.41	4.99995
70	16599	3.51	4.99995
70	17277	3.61	4.99995
70	17955	3.71	4.99995
70	18633	3.81	4.99995
70	19311	3.91	4.99995
70	19997	4.01	4.99995
70	20675	4.11	4.99994
70	21353	4.21	4.99994
70	22031	4.31	4.99994
70	22709	4.41	4.99994
70	23387	4.51	4.99994
70	24065	4.61	4.99994
70	24743	4.71	4.99994
70	25421	4.81	4.99994
70	26099	4.91	4.99994
70	26786	5.01	4.99994
70	27464	5.11	4.99994
70	28142	5.21	4.9997
70	28820	5.31	4.99725
70	29498	5.41	4.99229
70	30176	5.51	4.98524
70	30854	5.61	4.97646
70	31532	5.71	4.96625
70	32210	5.81	4.95487
72	303	1.11	3
72	983	1.21	3
72	1661	1.31	3
72	2340	1.41	3
72	3019	1.51	3
72	3697	1.61	3
72	4375	1.71	3
72	5054	1.81	3
72	5732	1.91	3
72	6421	2.01	3
72	7099	2.11	3
72	7777	2.21	3
72	8455	2.31	3
72	9133	2.41	3
72	9811	2.51	3
72	10489	2.61	3
72	11167	2.71	3
72	11845	2.81	3
72	12523	2.91	3
72	13209	3.01	3
72	13887	3.11	3
72	14565	3.21	3
72	15243	3.31	3
72	15921	3.41	3
72	16599	3.51	3
72	17277	3.61	3
72	17955	3.71	3
72	18633	3.81	3
72	19311	3.91	3
72	19997	4.01	3
72	20675	4.11	3
72	21353	4.21	3
72	22031	4.31	3
72	22709	4.41	3
72	23387	4.51	3
72	24065	4.61	3
72	24743	4.71	3
72	25421	4.81	3
72	26099	4.91	3
72	26786	5.01	3
72	27464	5.11	3
72	28142	5.21	3
72	28820	5.31	3
72	29498	5.41	3
72	30176	5.51	3
72	30854	5.61	3
72	31532	5.71	3
72	32210	5.81	3
84	1031	1.214071885765	0.100000843423
84	1710	1.314072729187	0.100000843422
84	2388	1.41407357261	0.100000843423
84	3067	1.514074416031	0.100000843421
84	3745	1.614075259452	0.100000843421
84	4423	1.714076102872	0.10000084342
84	5102	1.814063946291	0.099987843419
84	5780	1.91406478971	0.100000843419
84	6469	2.014065633129	0.100000843419
84	7147	2.114066476547	0.100000843418
84	7825	2.214067319966	0.100000843419
84	8503	2.314068163383	0.100000843417
84	9181	2.4140690068	0.100000843417
84	9859	2.514069850215	0.100000843415
84	10537	2.61407069363	0.100000843415
84	11215	2.714071537045	0.100000843415
84	11893	2.81407238046	0.100000843415
84	12571	2.914073223875	0.100000843415
84	13257	3.014074067289	0.100000843414
84	13935	3.114074910703	0.100000843414
84	14613	3.214075754116	0.100000843413
84	15291	3.314076597529	0.100000843413
84	15969	3.414064440942	0.099987843413
84	16647	3.514065284354	0.100000843412
84	17325	3.614066127766	0.100000843412
84	18003	3.714066971177	0.100000843411
84	18681	3.814067814587	0.10000084341
84	19359	3.914068657997	0.10000084341
84	20045	4.014069501407	0.10000084341
84	20723	4.114070344815	0.100000843408
84	21401	4.214071188222	0.100000843407
84	22079	4.31407203163	0.100000843408
84	22757	4.414072875038	0.100000843408
84	23435	4.514073718445	0.100000843407
84	24113	4.614074561851	0.100000843406
84	24791	4.714075405257	0.100000843406
84	25469	4.814076248662	0.100000843405
84	26147	4.914064092068	0.099987843406
84	26834	5.014064935473	0.100000843405
84	27512	5.114065778875	0.100000843402
84	28190	5.214066622223	0.100000843348
84	28868	5.314067465421	0.100000843198
84	29546	5.414068308364	0.100000842943
84	30224	5.514069150969	0.100000842605
84	30902	5.614069993168	0.100000842199
84	31580	5.71407083491	0.100000841742
84	32258	5.814071676158	0.100000841248
83	1330	1.255176308896	0.099922843422
83	2009	1.355203152319	0.100026843423
83	2688	1.45521699574	0.100013843421
83	3366	1.555243839161	0.100026843421
83	4044	1.655218682581	0.09997484342
83	4723	1.755180526001	0.09996184342
83	5401	1.85520736942	0.100026843419
83	6080	1.955247212839	0.100039843419
83	6768	2.055235056257	0.099987843418
83	7446	2.155222899676	0.099987843419
83	8124	2.255249743093	0.100026843417
83	8802	2.35517258651	0.099922843417
83	9480	2.455173429925	0.100000843415
83	10158	2.55525227334	0.100078843415
83	10836	2.655266116755	0.100013843415
83	11514	2.75521496017	0.099948843415
83	12192	2.855189803585	0.099974843415
83	12870	2.955229646999	0.100039843414
83	13556	3.055204490414	0.099974843415
83	14234	3.155231333827	0.100026843413
83	14912	3.25521917724	0.099987843413
83	15590	3.355233020653	0.100013843413
83	16268	3.455220864065	0.099987843412
83	16946	3.555169707477	0.099948843412
83	17624	3.655170550888	0.100000843411
83	18302	3.755236394299	0.100065843411
83	18980	3.855211237709	0.09997484341
83	19658	3.955264081119	0.10005284341
83	20344	4.055264924527	0.100000843408
83	21022	4.155187767934	0.099922843407
83	21700	4.255214611342	0.100026843408
83	22378	4.35516345475	0.099948843408
83	23056	4.455229298157	0.100065843407
83	23734	4.555217141564	0.099987843407
83	24412	4.65525698497	0.100039843406
83	25090	4.755205828375	0.099948843405
83	25768	4.855219671781	0.100013843406
83	26446	4.955168515186	0.099948843405
83	27133	5.055182358586	0.1000138434
83	27811	5.15517020193	0.099987843344
83	28489	5.255262045126	0.100091843196
83	29167	5.355223888083	0.099961842957
83	29845	5.455250730717	0.100026842634
83	30523	5.555238572961	0.099987842244
83	31201	5.655187414763	0.099948841802
83	31879	5.755240256085	0.100052841322
83	32557	5.855254096912	0.100013840827
82	1031	1.214071885765	3
82	1710	1.314072729187	3
82	2388	1.41407357261	3
82	3067	1.514074416031	3
82	3745	1.614075259452	3
82	4423	1.714076102872	3
82	5102	1.814063946291	3
82	5780	1.91406478971	3
82	6469	2.014065633129	3
82	7147	2.114066476547	3
82	7825	2.214067319966	3
82	8503	2.314068163383	3
82	9181	2.4140690068	3
82	9859	2.514069850215	3
82	10537	2.61407069363	3
82	11215	2.714071537045	3
82	11893	2.81407238046	3
82	12571	2.914073223875	3
82	13257	3.014074067289	3
82	13935	3.114074910703	3
82	14613	3.214075754116	3
82	15291	3.314076597529	3
82	15969	3.414064440942	3
82	16647	3.514065284354	3
82	17325	3.614066127766	3
82	18003	3.714066971177	3
82	18681	3.814067814587	3
82	19359	3.914068657997	3
82	20045	4.014069501407	3
82	20723	4.114070344815	3
82	21401	4.214071188222	3
82	22079	4.31407203163	3
82	22757	4.414072875038	3
82	23435	4.514073718445	3
82	24113	4.614074561851	3
82	24791	4.714075405257	3
82	25469	4.814076248662	3
82	26147	4.914064092068	3
82	26834	5.014064935473	3
82	27512	5.114065778875	3
82	28190	5.214066622223	3
82	28868	5.314067465421	3
82	29546	5.414068308364	3
82	30224	5.514069150969	3
82	30902	5.614069993168	3
82	31580	5.71407083491	3
82	32258	5.814071676158	3
81	1330	1.255176308896	3
81	2009	1.355203152319	3
81	2688	1.45521699574	3
81	3366	1.555243839161	3
81	4044	1.655218682581	3
81	4723	1.755180526001	3
81	5401	1.85520736942	3
81	6080	1.955247212839	3
81	6768	2.055235056257	3
81	7446	2.155222899676	3
81	8124	2.255249743093	3
81	8802	2.35517258651	3
81	9480	2.455173429925	3
81	10158	2.55525227334	3
81	10836	2.655266116755	3
81	11514	2.75521496017	3
81	12192	2.855189803585	3
81	12870	2.955229646999	3
81	13556	3.055204490414	3
81	14234	3.155231333827	3
81	14912	3.25521917724	3
81	15590	3.355233020653	3
81	16268	3.455220864065	3
81	16946	3.555169707477	3
81	17624	3.655170550888	3
81	18302	3.755236394299	3
81	18980	3.855211237709	3
81	19658	3.955264081119	3
81	20344	4.055264924527	3
81	21022	4.155187767934	3
81	21700	4.255214611342	3
81	22378	4.35516345475	3
81	23056	4.455229298157	3
81	23734	4.555217141564	3
81	24412	4.65525698497	3
81	25090	4.755205828375	3
81	25768	4.855219671781	3
81	26446	4.955168515186	3
81	27133	5.055182358586	3
81	27811	5.15517020193	3
81	28489	5.255262045126	3
81	29167	5.355223888083	3
81	29845	5.455250730717	3
81	30523	5.555238572961	3
81	31201	5.655187414763	3
81	31879	5.755240256085	3
81	32557	5.855254096912	3
80	6263	2	0
80	13053	3	0
80	19841	4	0
80	26630	5	0
79	6263	2	0.044248
79	13053	3	0.04921
79	19841	4	0.04921
79	26630	5	0.04921
78	6263	2	3
78	13053	3	3
78	19841	4	3
78	26630	5	3
100	304	1.11	0
100	984	1.21	0
100	1662	1.31	-0.00160226
100	2341	1.41	-0.0018157
100	3020	1.51	-0.0020251
100	3698	1.61	-0.00194469
100	4376	1.71	-0.00183345
100	5055	1.81	-0.00170092
100	5733	1.91	-0.00156788
100	6422	2.01	-0.00143128
100	7100	2.11	-0.00129909
100	7778	2.21	-0.00115893
100	8456	2.31	-0.00105205
100	9134	2.41	-0.000906458
100	9812	2.51	-0.000782424
100	10490	2.61	-0.000674045
100	11168	2.71	-0.000564899
100	11846	2.81	-0.000470827
100	12524	2.91	-0.000392181
100	13210	3.01	-0.0003189
100	13888	3.11	-0.000250555
100	14566	3.21	-0.000204253
100	15244	3.31	-0.000136633
100	15922	3.41	-0.000102091
100	16600	3.51	-5.72586e-05
100	17278	3.61	-3.56949e-06
100	17956	3.71	-1.01267e-05
100	18634	3.81	1.66266e-05
100	19312	3.91	4.51818e-05
100	19998	4.01	6.38048e-05
100	20676	4.11	8.09762e-05
100	21354	4.21	3.99396e-05
100	22032	4.31	4.70369e-05
100	22710	4.41	5.04187e-05
100	23388	4.51	5.06804e-05
100	24066	4.61	4.83882e-05
100	24744	4.71	4.40697e-05
100	25422	4.81	3.82085e-05
100	26100	4.91	3.12401e-05
100	26787	5.01	2.35502e-05
100	27465	5.11	-4.00459
100	28143	5.21	-6.01023
100	28821	5.31	-7.02986
100	29499	5.41	-8.07393
100	30177	5.51	-8.11657
100	30855	5.61	-8.15151
100	31533	5.71	-8.17996
100	32211	5.81	-8.20291
99	304	1.11	0
99	984	1.21	0
99	1662	1.31	-0.000290048
99	2341	1.41	-0.000567758
99	3020	1.51	-0.000834207
99	3698	1.61	-0.0010391
99	4376	1.71	-0.00118686
99	5055	1.81	-0.00128541
99	5733	1.91	-0.00134162
99	6422	2.01	-0.001364
99	7100	2.11	-0.00135845
99	7778	2.21	-0.0013276
99	8456	2.31	-0.00128362
99	9134	2.41	-0.00122101
99	9812	2.51	-0.00114694
99	10490	2.61	-0.00106625
99	11168	2.71	-0.000979981
99	11846	2.81	-0.000891849
99	12524	2.91	-0.000804966
99	13210	3.01	-0.000720943
99	13888	3.11	-0.00063847
99	14566	3.21	-0.000562963
99	15244	3.31	-0.000487654
99	15922	3.41	-0.00042019
99	16600	3.51	-0.00035648
99	17278	3.61	-0.000294285
99	17956	3.71	-0.000243334
99	18634	3.81	-0.000197367
99	19312	3.91	-0.000154332
99	19998	4.01	-0.000115511
99	20676	4.11	-8.04317e-05
99	21354	4.21	-5.89025e-05
99	22032	4.31	-3.9871e-05
99	22710	4.41	-2.35733e-05
99	23388	4.51	-1.00947e-05
99	24066	4.61	5.98037e-07
99	24744	4.71	8.62867e-06
99	25422	4.81	1.4187e-05
99	26100	4.91	1.75086e-05
99	26787	5.01	1.88574e-05
99	27465	5.11	-0.377498
99	28143	5.21	-1.3897
99	28821	5.31	-2.40335
99	29499	5.41	-3.4223
99	30177	5.51	-4.26582
99	30855	5.61	-4.96406
99	31533	5.71	-5.54196
99	32211	5.81	-6.02016
98	304	1.11	242.45
98	984	1.21	242.45
98	1662	1.31	242.45
98	2341	1.41	242.45
98	3020	1.51	242.45
98	3698	1.61	242.45
98	4376	1.71	242.45
98	5055	1.81	242.45
98	5733	1.91	242.45
98	6422	2.01	242.45
98	7100	2.11	242.45
98	7778	2.21	242.45
98	8456	2.31	242.45
98	9134	2.41	242.45
98	9812	2.51	242.45
98	10490	2.61	242.45
98	11168	2.71	242.45
98	11846	2.81	242.45
98	12524	2.91	242.45
98	13210	3.01	242.45
98	13888	3.11	242.45
98	14566	3.21	242.45
98	15244	3.31	242.45
98	15922	3.41	242.45
98	16600	3.51	242.45
98	17278	3.61	242.45
98	17956	3.71	242.45
98	18634	3.81	242.45
98	19312	3.91	242.45
98	19998	4.01	242.45
98	20676	4.11	242.45
98	21354	4.21	242.45
98	22032	4.31	242.45
98	22710	4.41	242.45
98	23388	4.51	242.45
98	24066	4.61	242.45
98	24744	4.71	242.45
98	25422	4.81	242.45
98	26100	4.91	242.45
98	26787	5.01	242.45
98	27465	5.11	242.45
98	28143	5.21	242.45
98	28821	5.31	242.45
98	29499	5.41	242.45
98	30177	5.51	242.45
98	30855	5.61	242.45
98	31533	5.71	242.45
98	32211	5.81	242.45
97	304	1.11	37.9402
97	984	1.21	40.7182
97	1662	1.31	43.4962
97	2341	1.41	46.2742
97	3020	1.51	49.0522
97	3698	1.61	51.8302
97	4376	1.71	54.6081
97	5055	1.81	57.3861
97	5733	1.91	60.164
97	6422	2.01	62.942
97	7100	2.11	65.7199
97	7778	2.21	68.4978
97	8456	2.31	71.2757
97	9134	2.41	74.0536
97	9812	2.51	76.8314
97	10490	2.61	79.6093
97	11168	2.71	82.3872
97	11846	2.81	85.165
97	12524	2.91	87.9428
97	13210	3.01	90.7206
97	13888	3.11	93.4984
97	14566	3.21	96.2763
97	15244	3.31	99.0541
97	15922	3.41	101.832
97	16600	3.51	104.61
97	17278	3.61	107.387
97	17956	3.71	110.165
97	18634	3.81	112.943
97	19312	3.91	115.721
97	19998	4.01	118.499
97	20676	4.11	121.276
97	21354	4.21	124.054
97	22032	4.31	126.832
97	22710	4.41	129.61
97	23388	4.51	132.387
97	24066	4.61	135.165
97	24744	4.71	137.943
97	25422	4.81	140.721
97	26100	4.91	143.499
97	26787	5.01	146.276
97	27465	5.11	149.054
97	28143	5.21	151.827
97	28821	5.31	154.585
97	29499	5.41	157.318
97	30177	5.51	160.017
97	30855	5.61	162.673
97	31533	5.71	165.279
97	32211	5.81	167.83
96	304	1.11	27.78
96	984	1.21	27.78
96	1662	1.31	27.78
96	2341	1.41	27.7799
96	3020	1.51	27.7799
96	3698	1.61	27.7798
96	4376	1.71	27.7797
96	5055	1.81	27.7795
96	5733	1.91	27.7794
96	6422	2.01	27.7793
96	7100	2.11	27.7791
96	7778	2.21	27.779
96	8456	2.31	27.7789
96	9134	2.41	27.7787
96	9812	2.51	27.7786
96	10490	2.61	27.7785
96	11168	2.71	27.7784
96	11846	2.81	27.7783
96	12524	2.91	27.7782
96	13210	3.01	27.7782
96	13888	3.11	27.7781
96	14566	3.21	27.778
96	15244	3.31	27.778
96	15922	3.41	27.7779
96	16600	3.51	27.7779
96	17278	3.61	27.7779
96	17956	3.71	27.7778
96	18634	3.81	27.7778
96	19312	3.91	27.7778
96	19998	4.01	27.7778
96	20676	4.11	27.7778
96	21354	4.21	27.7778
96	22032	4.31	27.7778
96	22710	4.41	27.7778
96	23388	4.51	27.7778
96	24066	4.61	27.7778
96	24744	4.71	27.7778
96	25422	4.81	27.7778
96	26100	4.91	27.7778
96	26787	5.01	27.7778
96	27465	5.11	27.7663
96	28143	5.21	27.6712
96	28821	5.31	27.4748
96	29499	5.41	27.1768
96	30177	5.51	26.7868
96	30855	5.61	26.3207
96	31533	5.71	25.7916
96	32211	5.81	25.2103
94	304	1.11	0
94	984	1.21	-3.10303e-06
94	1662	1.31	-1.12773e-05
94	2341	1.41	-1.97417e-05
94	3020	1.51	-2.8805e-05
94	3698	1.61	-3.60501e-05
94	4376	1.71	-4.15378e-05
94	5055	1.81	-4.56219e-05
94	5733	1.91	-4.88533e-05
94	6422	2.01	-5.14268e-05
94	7100	2.11	-5.31714e-05
94	7778	2.21	-5.43504e-05
94	8456	2.31	-5.48088e-05
94	9134	2.41	-5.45541e-05
94	9812	2.51	-5.41045e-05
94	10490	2.61	-5.35793e-05
94	11168	2.71	-5.29218e-05
94	11846	2.81	-5.22017e-05
94	12524	2.91	-5.14716e-05
94	13210	3.01	-5.05176e-05
94	13888	3.11	-4.9283e-05
94	14566	3.21	-4.77638e-05
94	15244	3.31	-4.59957e-05
94	15922	3.41	-4.41607e-05
94	16600	3.51	-4.22984e-05
94	17278	3.61	-4.05953e-05
94	17956	3.71	-3.90103e-05
94	18634	3.81	-3.7293e-05
94	19312	3.91	-3.55332e-05
94	19998	4.01	-3.38147e-05
94	20676	4.11	-3.25113e-05
94	21354	4.21	-3.1479e-05
94	22032	4.31	-3.02854e-05
94	22710	4.41	-2.89823e-05
94	23388	4.51	-2.76102e-05
94	24066	4.61	-2.61997e-05
94	24744	4.71	-2.47738e-05
94	25422	4.81	-2.33492e-05
94	26100	4.91	-2.19374e-05
94	26787	5.01	-2.05463e-05
94	27465	5.11	-1.91809e-05
94	28143	5.21	0.00357684
94	28821	5.31	-0.000235425
94	29499	5.41	-0.0115793
94	30177	5.51	-0.0213352
94	30855	5.61	-0.0297544
94	31533	5.71	-0.0370456
94	32211	5.81	-0.0433819
93	304	1.11	5
93	984	1.21	5
93	1662	1.31	5
93	2341	1.41	5
93	3020	1.51	5
93	3698	1.61	4.99999
93	4376	1.71	4.99999
93	5055	1.81	4.99998
93	5733	1.91	4.99998
93	6422	2.01	4.99997
93	7100	2.11	4.99997
93	7778	2.21	4.99996
93	8456	2.31	4.99996
93	9134	2.41	4.99995
93	9812	2.51	4.99995
93	10490	2.61	4.99994
93	11168	2.71	4.99994
93	11846	2.81	4.99993
93	12524	2.91	4.99993
93	13210	3.01	4.99992
93	13888	3.11	4.99992
93	14566	3.21	4.99991
93	15244	3.31	4.99991
93	15922	3.41	4.9999
93	16600	3.51	4.9999
93	17278	3.61	4.99989
93	17956	3.71	4.99989
93	18634	3.81	4.99989
93	19312	3.91	4.99988
93	19998	4.01	4.99988
93	20676	4.11	4.99987
93	21354	4.21	4.99987
93	22032	4.31	4.99987
93	22710	4.41	4.99987
93	23388	4.51	4.99986
93	24066	4.61	4.99986
93	24744	4.71	4.99986
93	25422	4.81	4.99986
93	26100	4.91	4.99985
93	26787	5.01	4.99985
93	27465	5.11	4.99985
93	28143	5.21	5.00003
93	28821	5.31	5.00036
93	29499	5.41	4.99976
93	30177	5.51	4.9981
93	30855	5.61	4.99554
93	31533	5.71	4.99219
93	32211	5.81	4.98816
95	304	1.11	4
95	984	1.21	4
95	1662	1.31	4
95	2341	1.41	4
95	3020	1.51	4
95	3698	1.61	4
95	4376	1.71	4
95	5055	1.81	4
95	5733	1.91	4
95	6422	2.01	4
95	7100	2.11	4
95	7778	2.21	4
95	8456	2.31	4
95	9134	2.41	4
95	9812	2.51	4
95	10490	2.61	4
95	11168	2.71	4
95	11846	2.81	4
95	12524	2.91	4
95	13210	3.01	4
95	13888	3.11	4
95	14566	3.21	4
95	15244	3.31	4
95	15922	3.41	4
95	16600	3.51	4
95	17278	3.61	4
95	17956	3.71	4
95	18634	3.81	4
95	19312	3.91	4
95	19998	4.01	4
95	20676	4.11	4
95	21354	4.21	4
95	22032	4.31	4
95	22710	4.41	4
95	23388	4.51	4
95	24066	4.61	4
95	24744	4.71	4
95	25422	4.81	4
95	26100	4.91	4
95	26787	5.01	4
95	27465	5.11	4
95	28143	5.21	4
95	28821	5.31	4
95	29499	5.41	4
95	30177	5.51	4
95	30855	5.61	4
95	31533	5.71	4
95	32211	5.81	4
107	1548	1.303719579083	0.099987843422
107	2227	1.403720422506	0.100000843423
107	2906	1.503721265927	0.100000843421
107	3584	1.603722109348	0.100000843421
107	4262	1.703722952768	0.10000084342
107	4941	1.803723796188	0.10000084342
107	5619	1.903724639607	0.100000843419
107	6306	2.003725483026	0.100000843419
107	6986	2.103726326444	0.100000843418
107	7664	2.203727169863	0.100000843419
107	8342	2.30372801328	0.100000843417
107	9020	2.403728856697	0.100000843417
107	9698	2.503729700112	0.100000843415
107	10376	2.603730543527	0.100000843415
107	11054	2.703731386942	0.100000843415
107	11732	2.803732230357	0.100000843415
107	12410	2.903720073772	0.099987843415
107	13096	3.003720917186	0.100000843414
107	13768	3.103721760599	0.100000843413
107	14446	3.203722604012	0.100000843413
107	15124	3.303723447425	0.100000843413
107	15802	3.403724290838	0.100000843413
107	16480	3.50372513425	0.100000843412
107	17158	3.603725977662	0.100000843412
107	17836	3.703726821073	0.100000843411
107	18514	3.803727664483	0.10000084341
107	19192	3.903728507893	0.10000084341
107	19878	4.003729351303	0.10000084341
107	20556	4.103730194711	0.100000843408
107	21234	4.203731038118	0.100000843407
107	21912	4.303731881526	0.100000843408
107	22590	4.403719724934	0.099987843408
107	23268	4.503720568341	0.100000843407
107	23946	4.603721411748	0.100000843407
107	24624	4.703722255154	0.100000843406
107	25302	4.803723098559	0.100000843405
107	25980	4.903723941965	0.100000843406
107	26667	5.00372478537	0.100000843405
107	27345	5.103725628771	0.100000843401
107	28029	5.203726472115	0.100000843344
107	28707	5.303727315309	0.100000843194
107	29385	5.403728158258	0.100000842949
107	30063	5.503729000877	0.100000842619
107	30741	5.603729843101	0.100000842224
107	31419	5.703730684874	0.100000841773
107	32097	5.803731526162	0.100000841288
106	1336	1.255176338917	0.099922843422
106	2015	1.35520318234	0.100026843423
106	2694	1.455217025761	0.100013843421
106	3372	1.555243869182	0.100026843421
106	4050	1.655218712602	0.09997484342
106	4729	1.755180556022	0.09996184342
106	5407	1.855207399441	0.100026843419
106	6086	1.955247242859	0.100039843418
106	6774	2.055235086277	0.099987843418
106	7452	2.155222929696	0.099987843419
106	8130	2.255249773114	0.100026843418
106	8808	2.355172616531	0.099922843417
106	9486	2.455173459946	0.100000843415
106	10164	2.555252303361	0.100078843415
106	10842	2.655266146776	0.100013843415
106	11520	2.755214990191	0.099948843415
106	12198	2.855189833606	0.099974843415
106	12876	2.955229677019	0.100039843413
106	13562	3.055204520434	0.099974843415
106	14240	3.155231363847	0.100026843413
106	14918	3.25521920726	0.099987843413
106	15596	3.355233050673	0.100013843413
106	16274	3.455220894085	0.099987843412
106	16952	3.555169737497	0.099948843412
106	17630	3.655170580908	0.100000843411
106	18308	3.755236424319	0.100065843411
106	18986	3.855211267729	0.09997484341
106	19664	3.955264111139	0.10005284341
106	20350	4.055264954547	0.100000843408
106	21028	4.155187797954	0.099922843407
106	21706	4.255214641362	0.100026843408
106	22384	4.35516348477	0.099948843408
106	23062	4.455229328177	0.100065843407
106	23740	4.555217171584	0.099987843407
106	24418	4.65525701499	0.100039843406
106	25096	4.755205858395	0.099948843405
106	25774	4.855219701801	0.100013843406
106	26452	4.955168545206	0.099948843405
106	27139	5.055182388606	0.1000138434
106	27817	5.15517023195	0.099987843344
106	28495	5.255262075148	0.100091843198
106	29173	5.355223918105	0.099961842957
106	29851	5.455250760734	0.100026842629
106	30529	5.555238602971	0.099987842237
106	31207	5.655187444763	0.099948841792
106	31885	5.755240286074	0.100052841311
106	32563	5.855254126886	0.100013840812
105	1548	1.303719579083	4
105	2227	1.403720422506	4
105	2906	1.503721265927	4
105	3584	1.603722109348	4
105	4262	1.703722952768	4
105	4941	1.803723796188	4
105	5619	1.903724639607	4
105	6306	2.003725483026	4
105	6986	2.103726326444	4
105	7664	2.203727169863	4
105	8342	2.30372801328	4
105	9020	2.403728856697	4
105	9698	2.503729700112	4
105	10376	2.603730543527	4
105	11054	2.703731386942	4
105	11732	2.803732230357	4
105	12410	2.903720073772	4
105	13096	3.003720917186	4
105	13768	3.103721760599	4
105	14446	3.203722604012	4
105	15124	3.303723447425	4
105	15802	3.403724290838	4
105	16480	3.50372513425	4
105	17158	3.603725977662	4
105	17836	3.703726821073	4
105	18514	3.803727664483	4
105	19192	3.903728507893	4
105	19878	4.003729351303	4
105	20556	4.103730194711	4
105	21234	4.203731038118	4
105	21912	4.303731881526	4
105	22590	4.403719724934	4
105	23268	4.503720568341	4
105	23946	4.603721411748	4
105	24624	4.703722255154	4
105	25302	4.803723098559	4
105	25980	4.903723941965	4
105	26667	5.00372478537	4
105	27345	5.103725628771	4
105	28029	5.203726472115	4
105	28707	5.303727315309	4
105	29385	5.403728158258	4
105	30063	5.503729000877	4
105	30741	5.603729843101	4
105	31419	5.703730684874	4
105	32097	5.803731526162	4
104	1336	1.255176338917	4
104	2015	1.35520318234	4
104	2694	1.455217025761	4
104	3372	1.555243869182	4
104	4050	1.655218712602	4
104	4729	1.755180556022	4
104	5407	1.855207399441	4
104	6086	1.955247242859	4
104	6774	2.055235086277	4
104	7452	2.155222929696	4
104	8130	2.255249773114	4
104	8808	2.355172616531	4
104	9486	2.455173459946	4
104	10164	2.555252303361	4
104	10842	2.655266146776	4
104	11520	2.755214990191	4
104	12198	2.855189833606	4
104	12876	2.955229677019	4
104	13562	3.055204520434	4
104	14240	3.155231363847	4
104	14918	3.25521920726	4
104	15596	3.355233050673	4
104	16274	3.455220894085	4
104	16952	3.555169737497	4
104	17630	3.655170580908	4
104	18308	3.755236424319	4
104	18986	3.855211267729	4
104	19664	3.955264111139	4
104	20350	4.055264954547	4
104	21028	4.155187797954	4
104	21706	4.255214641362	4
104	22384	4.35516348477	4
104	23062	4.455229328177	4
104	23740	4.555217171584	4
104	24418	4.65525701499	4
104	25096	4.755205858395	4
104	25774	4.855219701801	4
104	26452	4.955168545206	4
104	27139	5.055182388606	4
104	27817	5.15517023195	4
104	28495	5.255262075148	4
104	29173	5.355223918105	4
104	29851	5.455250760734	4
104	30529	5.555238602971	4
104	31207	5.655187444763	4
104	31885	5.755240286074	4
104	32563	5.855254126886	4
103	6264	2	0
103	13054	3	0
103	19842	4	0
103	26631	5	0
102	6264	2	0.044249
102	13054	3	0.04921
102	19842	4	0.04921
102	26631	5	0.04921
101	6264	2	4
101	13054	3	4
101	19842	4	4
101	26631	5	4
123	305	1.11	0
123	985	1.21	-0.00108403
123	1663	1.31	-0.00185807
123	2342	1.41	-0.00191544
123	3021	1.51	-0.00197995
123	3699	1.61	-0.00188294
123	4377	1.71	-0.00176813
123	5056	1.81	-0.00162451
123	5734	1.91	-0.00148612
123	6423	2.01	-0.00136451
123	7101	2.11	-0.00121615
123	7779	2.21	-0.00110684
123	8457	2.31	-0.000978779
123	9135	2.41	-0.000837124
123	9813	2.51	-0.000712995
123	10491	2.61	-0.000604161
123	11169	2.71	-0.000502797
123	11847	2.81	-0.000416985
123	12525	2.91	-0.000346867
123	13211	3.01	-0.000277195
123	13889	3.11	-0.000227433
123	14567	3.21	-0.000155753
123	15245	3.31	-0.000120048
123	15923	3.41	-6.70985e-05
123	16601	3.51	-4.47167e-05
123	17279	3.61	6.93882e-06
123	17957	3.71	-1.63458e-05
123	18635	3.81	1.29283e-05
123	19313	3.91	3.95422e-05
123	19999	4.01	5.79762e-05
123	20677	4.11	7.28318e-05
123	21355	4.21	5.602e-05
123	22033	4.31	6.12413e-05
123	22711	4.41	6.2984e-05
123	23389	4.51	6.18332e-05
123	24067	4.61	5.83417e-05
123	24745	4.71	5.30228e-05
123	25423	4.81	4.63436e-05
123	26101	4.91	3.87227e-05
123	26788	5.01	3.05289e-05
123	27466	5.11	-6.00689
123	28144	5.21	-7.02301
123	28822	5.31	-7.54257
123	29500	5.41	-8.07358
123	30178	5.51	-8.10358
123	30856	5.61	-8.12817
123	31534	5.71	-8.14821
123	32212	5.81	-8.16439
122	305	1.11	0
122	985	1.21	-8.25162e-05
122	1663	1.31	-0.000320868
122	2342	1.41	-0.000600532
122	3021	1.51	-0.000840581
122	3699	1.61	-0.00103665
122	4377	1.71	-0.00117882
122	5056	1.81	-0.0012724
122	5734	1.91	-0.00132394
122	6423	2.01	-0.00134248
122	7101	2.11	-0.00133385
122	7779	2.21	-0.00130334
122	8457	2.31	-0.00125714
122	9135	2.41	-0.00119529
122	9813	2.51	-0.00112053
122	10491	2.61	-0.00103816
122	11169	2.71	-0.000951712
122	11847	2.81	-0.000863867
122	12525	2.91	-0.000777679
122	13211	3.01	-0.000694323
122	13889	3.11	-0.000615211
122	14567	3.21	-0.0005396
122	15245	3.31	-0.000467694
122	15923	3.41	-0.000400866
122	16601	3.51	-0.000338922
122	17279	3.61	-0.000281914
122	17957	3.71	-0.000231805
122	18635	3.81	-0.00019074
122	19313	3.91	-0.000152031
122	19999	4.01	-0.00011615
122	20677	4.11	-8.37036e-05
122	21355	4.21	-5.68508e-05
122	22033	4.31	-3.61856e-05
122	22711	4.41	-1.85781e-05
122	23389	4.51	-4.05535e-06
122	24067	4.61	7.46241e-06
122	24745	4.71	1.61366e-05
122	25423	4.81	2.21881e-05
122	26101	4.91	2.58777e-05
122	26788	5.01	2.74906e-05
122	27466	5.11	-0.529988
122	28144	5.21	-1.59088
122	28822	5.31	-2.60583
122	29500	5.41	-3.53264
122	30178	5.51	-4.35026
122	30856	5.61	-5.02605
122	31534	5.71	-5.58456
122	32212	5.81	-6.0461
121	305	1.11	242.45
121	985	1.21	242.45
121	1663	1.31	242.45
121	2342	1.41	242.45
121	3021	1.51	242.45
121	3699	1.61	242.45
121	4377	1.71	242.45
121	5056	1.81	242.45
121	5734	1.91	242.45
121	6423	2.01	242.45
121	7101	2.11	242.45
121	7779	2.21	242.45
121	8457	2.31	242.45
121	9135	2.41	242.45
121	9813	2.51	242.45
121	10491	2.61	242.45
121	11169	2.71	242.45
121	11847	2.81	242.45
121	12525	2.91	242.45
121	13211	3.01	242.45
121	13889	3.11	242.45
[...]
153	28774	5.305322375358	0.099987843201
153	29452	5.405323218321	0.100000842963
153	30130	5.50532406096	0.100000842639
153	30808	5.605324903206	0.100000842246
153	31486	5.705325745005	0.100000841799
153	32164	5.805326586321	0.100000841316
152	1348	1.255176398959	0.099922843422
152	2027	1.355203242382	0.100026843423
152	2706	1.455217085802	0.10001384342
152	3384	1.555243929223	0.100026843421
152	4062	1.655218772643	0.09997484342
152	4741	1.755180616063	0.09996184342
152	5419	1.855207459482	0.100026843419
152	6098	1.955247302901	0.100039843419
152	6786	2.055235146319	0.099987843418
152	7464	2.155222989738	0.099987843419
152	8142	2.255249833156	0.100026843418
152	8820	2.355172676573	0.099922843417
152	9498	2.455173519987	0.100000843414
152	10176	2.555252363402	0.100078843415
152	10854	2.655266206817	0.100013843415
152	11532	2.755215050232	0.099948843415
152	12210	2.855189893647	0.099974843415
152	12888	2.955229737061	0.100039843414
152	13574	3.055204580476	0.099974843415
152	14252	3.155231423889	0.100026843413
152	14930	3.255219267302	0.099987843413
152	15608	3.355233110715	0.100013843413
152	16286	3.455220954127	0.099987843412
152	16964	3.555169797539	0.099948843412
152	17642	3.655170640949	0.10000084341
152	18320	3.75523648436	0.100065843411
152	18998	3.85521132777	0.09997484341
152	19676	3.95526417118	0.10005284341
152	20362	4.055265014588	0.100000843408
152	21040	4.155187857995	0.099922843407
152	21718	4.255214701403	0.100026843408
152	22396	4.355163544811	0.099948843408
152	23074	4.455229388218	0.100065843407
152	23752	4.555217231625	0.099987843407
152	24430	4.655257075031	0.100039843406
152	25108	4.755205918436	0.099948843405
152	25786	4.855219761842	0.100013843406
152	26464	4.955168605247	0.099948843405
152	27151	5.055182448648	0.100013843401
152	27829	5.155170291992	0.099987843344
152	28507	5.255262135192	0.1000918432
152	29185	5.35522397816	0.099961842968
152	29863	5.455250820806	0.100026842646
152	30541	5.555238663065	0.099987842259
152	31219	5.655187504881	0.099948841816
152	31897	5.755240346218	0.100052841337
152	32575	5.855254187059	0.100013840841
151	1621	1.305327639125	6
151	2300	1.405328482548	6
151	2979	1.505329325969	6
151	3657	1.60533016939	6
151	4335	1.70533101281	6
151	5014	1.805331856229	6
151	5692	1.905332699648	6
151	6379	2.005333543067	6
151	7059	2.105334386485	6
151	7737	2.205335229904	6
151	8415	2.305323073321	6
151	9093	2.405323916738	6
151	9771	2.505324760153	6
151	10449	2.605325603568	6
151	11127	2.705326446983	6
151	11805	2.805327290398	6
151	12483	2.905328133813	6
151	13169	3.005328977227	6
151	13847	3.105329820641	6
151	14525	3.205330664054	6
151	15203	3.305331507467	6
151	15881	3.40533235088	6
151	16559	3.505333194292	6
151	17237	3.605334037704	6
151	17915	3.705334881115	6
151	18593	3.805322724525	6
151	19271	3.905323567935	6
151	19957	4.005324411345	6
151	20635	4.105325254753	6
151	21313	4.20532609816	6
151	21991	4.305326941568	6
151	22669	4.405327784976	6
151	23347	4.505328628383	6
151	24025	4.60532947179	6
151	24703	4.705330315196	6
151	25381	4.805331158601	6
151	26059	4.905332002007	6
151	26746	5.005332845412	6
151	27418	5.105333688812	6
151	28096	5.205334532157	6
151	28774	5.305322375358	6
151	29452	5.405323218321	6
151	30130	5.50532406096	6
151	30808	5.605324903206	6
151	31486	5.705325745005	6
151	32164	5.805326586321	6
150	1348	1.255176398959	6
150	2027	1.355203242382	6
150	2706	1.455217085802	6
150	3384	1.555243929223	6
150	4062	1.655218772643	6
150	4741	1.755180616063	6
150	5419	1.855207459482	6
150	6098	1.955247302901	6
150	6786	2.055235146319	6
150	7464	2.155222989738	6
150	8142	2.255249833156	6
150	8820	2.355172676573	6
150	9498	2.455173519987	6
150	10176	2.555252363402	6
150	10854	2.655266206817	6
150	11532	2.755215050232	6
150	12210	2.855189893647	6
150	12888	2.955229737061	6
150	13574	3.055204580476	6
150	14252	3.155231423889	6
150	14930	3.255219267302	6
150	15608	3.355233110715	6
150	16286	3.455220954127	6
150	16964	3.555169797539	6
150	17642	3.655170640949	6
150	18320	3.75523648436	6
150	18998	3.85521132777	6
150	19676	3.95526417118	6
150	20362	4.055265014588	6
150	21040	4.155187857995	6
150	21718	4.255214701403	6
150	22396	4.355163544811	6
150	23074	4.455229388218	6
150	23752	4.555217231625	6
150	24430	4.655257075031	6
150	25108	4.755205918436	6
150	25786	4.855219761842	6
150	26464	4.955168605247	6
150	27151	5.055182448648	6
150	27829	5.155170291992	6
150	28507	5.255262135192	6
150	29185	5.35522397816	6
150	29863	5.455250820806	6
150	30541	5.555238663065	6
150	31219	5.655187504881	6
150	31897	5.755240346218	6
150	32575	5.855254187059	6
149	6266	2	0
149	13056	3	0
149	19844	4	0
149	26633	5	0
148	6266	2	0.044249
148	13056	3	0.04921
148	19844	4	0.04921
148	26633	5	0.04921
147	6266	2	6
147	13056	3	6
147	19844	4	6
147	26633	5	6
169	307	1.11	0
169	987	1.21	-0.0010837
169	1665	1.31	-0.00187081
169	2344	1.41	-0.00200046
169	3023	1.51	-0.00196251
169	3701	1.61	-0.00188421
169	4379	1.71	-0.00177034
169	5058	1.81	-0.00164817
169	5736	1.91	-0.00150042
169	6425	2.01	-0.00137547
169	7103	2.11	-0.0012202
169	7781	2.21	-0.00108709
169	8459	2.31	-0.000980172
169	9137	2.41	-0.000841804
169	9815	2.51	-0.000724854
169	10493	2.61	-0.000608134
169	11171	2.71	-0.000506809
169	11849	2.81	-0.000419288
169	12527	2.91	-0.000347622
169	13213	3.01	-0.000266583
169	13891	3.11	-0.000187093
169	14569	3.21	-0.000148649
169	15247	3.31	-0.000104946
169	15925	3.41	-5.98311e-05
169	16603	3.51	7.56639e-07
169	17281	3.61	4.46941e-07
169	17959	3.71	3.51669e-05
169	18637	3.81	4.95251e-05
169	19315	3.91	6.1169e-05
169	20001	4.01	5.21733e-05
169	20679	4.11	6.69146e-05
169	21357	4.21	7.70706e-05
169	22035	4.31	7.60891e-05
169	22713	4.41	7.79492e-05
169	23391	4.51	7.67798e-05
169	24069	4.61	7.31482e-05
169	24747	4.71	6.75831e-05
169	25425	4.81	6.05679e-05
169	26103	4.91	5.25376e-05
169	26790	5.01	4.38765e-05
169	27468	5.11	-4.00457
169	28146	5.21	-7.53328
169	28824	5.31	-7.81953
169	29502	5.41	-7.97597
169	30180	5.51	-8.13078
169	30858	5.61	-8.15661
169	31536	5.71	-8.17736
169	32214	5.81	-8.19383
168	307	1.11	0
168	987	1.21	-0.000102108
168	1665	1.31	-0.000352637
168	2344	1.41	-0.000637515
168	3023	1.51	-0.000878708
168	3701	1.61	-0.00106596
168	4379	1.71	-0.00120218
168	5058	1.81	-0.00129269
168	5736	1.91	-0.0013426
168	6425	2.01	-0.00135916
168	7103	2.11	-0.00134745
168	7781	2.21	-0.00131205
168	8459	2.31	-0.00126156
168	9137	2.41	-0.00119798
168	9815	2.51	-0.00112299
168	10493	2.61	-0.00104048
168	11171	2.71	-0.000953283
168	11849	2.81	-0.000864848
168	12527	2.91	-0.000778073
168	13213	3.01	-0.000693129
168	13891	3.11	-0.000609031
168	14569	3.21	-0.000529629
168	15247	3.31	-0.00045709
168	15925	3.41	-0.000389596
168	16603	3.51	-0.000324661
168	17281	3.61	-0.000266247
168	17959	3.71	-0.00021508
168	18637	3.81	-0.000168785
168	19315	3.91	-0.00012848
168	20001	4.01	-9.52709e-05
168	20679	4.11	-6.74062e-05
168	21357	4.21	-4.23295e-05
168	22035	4.31	-2.09813e-05
168	22713	4.41	-3.375e-06
168	23391	4.51	1.11179e-05
168	24069	4.61	2.2566e-05
168	24747	4.71	3.11236e-05
168	25425	4.81	3.70083e-05
168	26103	4.91	4.04806e-05
168	26790	5.01	4.18277e-05
168	27468	5.11	-0.377475
168	28146	5.21	-1.36134
168	28824	5.31	-2.4968
168	29502	5.41	-3.46749
168	30180	5.51	-4.29177
168	30858	5.61	-4.98366
168	31536	5.71	-5.55545
168	32214	5.81	-6.02787
167	307	1.11	242.45
167	987	1.21	242.45
167	1665	1.31	242.45
167	2344	1.41	242.45
167	3023	1.51	242.45
167	3701	1.61	242.45
167	4379	1.71	242.45
167	5058	1.81	242.45
167	5736	1.91	242.45
167	6425	2.01	242.45
167	7103	2.11	242.45
167	7781	2.21	242.45
167	8459	2.31	242.45
167	9137	2.41	242.45
167	9815	2.51	242.45
167	10493	2.61	242.45
167	11171	2.71	242.45
167	11849	2.81	242.45
167	12527	2.91	242.45
167	13213	3.01	242.45
167	13891	3.11	242.45
167	14569	3.21	242.45
167	15247	3.31	242.45
167	15925	3.41	242.45
167	16603	3.51	242.45
167	17281	3.61	242.45
167	17959	3.71	242.45
167	18637	3.81	242.45
167	19315	3.91	242.45
167	20001	4.01	242.45
167	20679	4.11	242.45
167	21357	4.21	242.45
167	22035	4.31	242.45
167	22713	4.41	242.45
167	23391	4.51	242.45
167	24069	4.61	242.45
167	24747	4.71	242.45
167	25425	4.81	242.45
167	26103	4.91	242.45
167	26790	5.01	242.45
167	27468	5.11	242.45
167	28146	5.21	242.45
167	28824	5.31	242.45
167	29502	5.41	242.45
167	30180	5.51	242.45
167	30858	5.61	242.45
167	31536	5.71	242.45
167	32214	5.81	242.45
166	307	1.11	10.9402
166	987	1.21	13.7182
166	1665	1.31	16.4962
166	2344	1.41	19.2742
166	3023	1.51	22.0522
166	3701	1.61	24.8302
166	4379	1.71	27.6081
166	5058	1.81	30.3861
166	5736	1.91	33.164
166	6425	2.01	35.942
166	7103	2.11	38.7199
166	7781	2.21	41.4978
166	8459	2.31	44.2757
166	9137	2.41	47.0536
166	9815	2.51	49.8314
166	10493	2.61	52.6093
166	11171	2.71	55.3871
166	11849	2.81	58.165
166	12527	2.91	60.9428
166	13213	3.01	63.7206
166	13891	3.11	66.4984
166	14569	3.21	69.2762
166	15247	3.31	72.054
166	15925	3.41	74.8318
166	16603	3.51	77.6096
166	17281	3.61	80.3874
166	17959	3.71	83.1652
166	18637	3.81	85.943
166	19315	3.91	88.7207
166	20001	4.01	91.4985
166	20679	4.11	94.2763
166	21357	4.21	97.0541
166	22035	4.31	99.8319
166	22713	4.41	102.61
166	23391	4.51	105.387
166	24069	4.61	108.165
166	24747	4.71	110.943
166	25425	4.81	113.721
166	26103	4.91	116.499
166	26790	5.01	119.276
166	27468	5.11	122.054
166	28146	5.21	124.827
166	28824	5.31	127.586
166	29502	5.41	130.32
166	30180	5.51	133.019
166	30858	5.61	135.674
166	31536	5.71	138.28
166	32214	5.81	140.83
165	307	1.11	27.78
165	987	1.21	27.78
165	1665	1.31	27.78
165	2344	1.41	27.7799
165	3023	1.51	27.7798
165	3701	1.61	27.7797
165	4379	1.71	27.7796
165	5058	1.81	27.7795
165	5736	1.91	27.7794
165	6425	2.01	27.7792
165	7103	2.11	27.7791
165	7781	2.21	27.779
165	8459	2.31	27.7788
165	9137	2.41	27.7787
165	9815	2.51	27.7786
165	10493	2.61	27.7785
165	11171	2.71	27.7784
165	11849	2.81	27.7783
165	12527	2.91	27.7782
165	13213	3.01	27.7782
165	13891	3.11	27.7781
165	14569	3.21	27.778
165	15247	3.31	27.778
165	15925	3.41	27.7779
165	16603	3.51	27.7779
165	17281	3.61	27.7779
165	17959	3.71	27.7778
165	18637	3.81	27.7778
165	19315	3.91	27.7778
165	20001	4.01	27.7778
165	20679	4.11	27.7778
165	21357	4.21	27.7778
165	22035	4.31	27.7778
165	22713	4.41	27.7778
165	23391	4.51	27.7778
165	24069	4.61	27.7778
165	24747	4.71	27.7778
165	25425	4.81	27.7778
165	26103	4.91	27.7778
165	26790	5.01	27.7778
165	27468	5.11	27.7663
165	28146	5.21	27.6816
165	28824	5.31	27.4819
165	29502	5.41	27.1776
165	30180	5.51	26.7846
165	30858	5.61	26.3163
165	31536	5.71	25.7856
165	32214	5.81	25.2033
163	307	1.11	0
163	987	1.21	3.10303e-06
163	1665	1.31	9.06612e-06
163	2344	1.41	1.39922e-05
163	3023	1.51	1.82918e-05
163	3701	1.61	2.20329e-05
163	4379	1.71	2.53368e-05
163	5058	1.81	2.80261e-05
163	5736	1.91	3.02337e-05
163	6425	2.01	3.20902e-05
163	7103	2.11	3.39175e-05
163	7781	2.21	3.54082e-05
163	8459	2.31	3.64484e-05
163	9137	2.41	3.74549e-05
163	9815	2.51	3.82016e-05
163	10493	2.61	3.86538e-05
163	11171	2.71	3.88228e-05
163	11849	2.81	3.87279e-05
163	12527	2.91	3.83916e-05
163	13213	3.01	3.80936e-05
163	13891	3.11	3.77993e-05
163	14569	3.21	3.70422e-05
163	15247	3.31	3.62796e-05
163	15925	3.41	3.55023e-05
163	16603	3.51	3.46564e-05
163	17281	3.61	3.34159e-05
163	17959	3.71	3.21844e-05
163	18637	3.81	3.07594e-05
163	19315	3.91	2.89097e-05
163	20001	4.01	2.67907e-05
163	20679	4.11	2.487e-05
163	21357	4.21	2.3161e-05
163	22035	4.31	2.15101e-05
163	22713	4.41	1.98924e-05
163	23391	4.51	1.83149e-05
163	24069	4.61	1.67738e-05
163	24747	4.71	1.52672e-05
163	25425	4.81	1.37944e-05
163	26103	4.91	1.23562e-05
163	26790	5.01	1.09534e-05
163	27468	5.11	9.58738e-06
163	28146	5.21	-0.0205327
163	28824	5.31	-0.0385445
163	29502	5.41	-0.0511467
163	30180	5.51	-0.0612334
163	30858	5.61	-0.0692515
163	31536	5.71	-0.0753055
163	32214	5.81	-0.0797007
162	307	1.11	5
162	987	1.21	5
162	1665	1.31	5
162	2344	1.41	5
162	3023	1.51	5
162	3701	1.61	5.00001
162	4379	1.71	5.00001
162	5058	1.81	5.00001
162	5736	1.91	5.00001
162	6425	2.01	5.00002
162	7103	2.11	5.00002
162	7781	2.21	5.00002
162	8459	2.31	5.00003
162	9137	2.41	5.00003
162	9815	2.51	5.00003
162	10493	2.61	5.00004
162	11171	2.71	5.00004
162	11849	2.81	5.00005
162	12527	2.91	5.00005
162	13213	3.01	5.00005
162	13891	3.11	5.00006
162	14569	3.21	5.00006
162	15247	3.31	5.00006
162	15925	3.41	5.00007
162	16603	3.51	5.00007
162	17281	3.61	5.00008
162	17959	3.71	5.00008
162	18637	3.81	5.00008
162	19315	3.91	5.00008
162	20001	4.01	5.00009
162	20679	4.11	5.00009
162	21357	4.21	5.00009
162	22035	4.31	5.00009
162	22713	4.41	5.0001
162	23391	4.51	5.0001
162	24069	4.61	5.0001
162	24747	4.71	5.0001
162	25425	4.81	5.0001
162	26103	4.91	5.0001
162	26790	5.01	5.00011
162	27468	5.11	5.00011
162	28146	5.21	4.9992
162	28824	5.31	4.9962
162	29502	5.41	4.99167
162	30180	5.51	4.98604
162	30858	5.61	4.9795
162	31536	5.71	4.97226
162	32214	5.81	4.9645
164	307	1.11	7
164	987	1.21	7
164	1665	1.31	7
164	2344	1.41	7
164	3023	1.51	7
164	3701	1.61	7
164	4379	1.71	7
164	5058	1.81	7
164	5736	1.91	7
164	6425	2.01	7
164	7103	2.11	7
164	7781	2.21	7
164	8459	2.31	7
164	9137	2.41	7
164	9815	2.51	7
164	10493	2.61	7
164	11171	2.71	7
164	11849	2.81	7
164	12527	2.91	7
164	13213	3.01	7
164	13891	3.11	7
164	14569	3.21	7
164	15247	3.31	7
164	15925	3.41	7
164	16603	3.51	7
164	17281	3.61	7
164	17959	3.71	7
164	18637	3.81	7
164	19315	3.91	7
164	20001	4.01	7
164	20679	4.11	7
164	21357	4.21	7
164	22035	4.31	7
164	22713	4.41	7
164	23391	4.51	7
164	24069	4.61	7
164	24747	4.71	7
164	25425	4.81	7
164	26103	4.91	7
164	26790	5.01	7
164	27468	5.11	7
164	28146	5.21	7
164	28824	5.31	7
164	29502	5.41	7
164	30180	5.51	7
164	30858	5.61	7
164	31536	5.71	7
164	32214	5.81	7
176	1249	1.25459506873	0.100000843422
176	1928	1.354595912153	0.100000843423
176	2607	1.454596755575	0.100000843422
176	3285	1.554597598996	0.100000843421
176	3963	1.654598442416	0.10000084342
176	4642	1.754599285836	0.10000084342
176	5320	1.854600129255	0.100000843419
176	5999	1.954600972674	0.100000843419
176	6687	2.054601816092	0.100000843418
176	7365	2.154602659511	0.100000843419
176	8043	2.254603502929	0.100000843418
176	8721	2.354604346346	0.100000843417
176	9399	2.454605189762	0.100000843416
176	10077	2.554606033177	0.100000843415
176	10755	2.654606876592	0.100000843415
176	11433	2.754594720007	0.099987843415
176	12111	2.854595563422	0.100000843415
176	12789	2.954596406836	0.100000843414
176	13475	3.054597250251	0.100000843415
176	14153	3.154598093664	0.100000843413
176	14831	3.254598937077	0.100000843413
176	15509	3.35459978049	0.100000843413
176	16187	3.454600623902	0.100000843412
176	16865	3.554601467314	0.100000843412
176	17543	3.654602310726	0.100000843412
176	18221	3.754603154137	0.100000843411
176	18899	3.854603997547	0.10000084341
176	19577	3.954604840957	0.10000084341
176	20263	4.054605684365	0.100000843408
176	20941	4.154606527772	0.100000843407
176	21619	4.25459437118	0.099987843408
176	22297	4.354595214588	0.100000843408
176	22975	4.454596057995	0.100000843407
176	23653	4.554596901402	0.100000843407
176	24331	4.654597744808	0.100000843406
176	25009	4.754598588213	0.100000843405
176	25687	4.854599431619	0.100000843406
176	26365	4.954600275024	0.100000843405
176	27052	5.054601118429	0.100000843405
176	27730	5.154601961831	0.100000843402
176	28402	5.25460280516	0.100000843329
176	29080	5.354603648321	0.100000843161
176	29758	5.45460449122	0.100000842899
176	30436	5.554605333779	0.100000842559
176	31114	5.654606175936	0.100000842157
176	31792	5.754594017643	0.099987841707
176	32470	5.854594858878	0.100000841235
175	1354	1.255176428979	0.099922843422
175	2033	1.355203272402	0.100026843423
175	2712	1.455217115823	0.100013843421
175	3390	1.555243959244	0.100026843421
175	4068	1.655218802664	0.09997484342
175	4747	1.755180646084	0.09996184342
175	5425	1.855207489503	0.100026843419
175	6104	1.955247332922	0.100039843419
175	6792	2.05523517634	0.099987843418
175	7470	2.155223019759	0.099987843419
175	8148	2.255249863176	0.100026843417
175	8826	2.355172706593	0.099922843417
175	9504	2.455173550008	0.100000843415
175	10182	2.555252393423	0.100078843415
175	10860	2.655266236838	0.100013843415
175	11538	2.755215080253	0.099948843415
175	12216	2.855189923668	0.099974843415
175	12894	2.955229767082	0.100039843414
175	13580	3.055204610497	0.099974843415
175	14258	3.15523145391	0.100026843413
175	14936	3.255219297323	0.099987843413
175	15614	3.355233140736	0.100013843413
175	16292	3.455220984148	0.099987843412
175	16970	3.55516982756	0.099948843412
175	17648	3.655170670971	0.100000843411
175	18326	3.755236514381	0.10006584341
175	19004	3.855211357791	0.09997484341
175	19682	3.955264201201	0.10005284341
175	20368	4.055265044609	0.100000843408
175	21046	4.155187888016	0.099922843407
175	21724	4.255214731424	0.100026843408
175	22402	4.355163574832	0.099948843408
175	23080	4.455229418239	0.100065843407
175	23758	4.555217261646	0.099987843407
175	24436	4.655257105052	0.100039843406
175	25114	4.755205948457	0.099948843405
175	25792	4.855219791863	0.100013843406
175	26470	4.955168635268	0.099948843405
175	27157	5.055182478669	0.100013843401
175	27835	5.155170322012	0.099987843343
175	28513	5.255262165206	0.100091843194
175	29191	5.355224008161	0.099961842955
175	29869	5.45525085079	0.100026842629
175	30547	5.555238693028	0.099987842238
175	31225	5.655187534822	0.099948841794
175	31903	5.755240376134	0.100052841312
175	32581	5.855254216948	0.100013840814
174	1249	1.25459506873	7
174	1928	1.354595912153	7
174	2607	1.454596755575	7
174	3285	1.554597598996	7
174	3963	1.654598442416	7
174	4642	1.754599285836	7
174	5320	1.854600129255	7
174	5999	1.954600972674	7
174	6687	2.054601816092	7
174	7365	2.154602659511	7
174	8043	2.254603502929	7
174	8721	2.354604346346	7
174	9399	2.454605189762	7
174	10077	2.554606033177	7
174	10755	2.654606876592	7
174	11433	2.754594720007	7
174	12111	2.854595563422	7
174	12789	2.954596406836	7
174	13475	3.054597250251	7
174	14153	3.154598093664	7
174	14831	3.254598937077	7
174	15509	3.35459978049	7
174	16187	3.454600623902	7
174	16865	3.554601467314	7
174	17543	3.654602310726	7
174	18221	3.754603154137	7
174	18899	3.854603997547	7
174	19577	3.954604840957	7
174	20263	4.054605684365	7
174	20941	4.154606527772	7
174	21619	4.25459437118	7
174	22297	4.354595214588	7
174	22975	4.454596057995	7
174	23653	4.554596901402	7
174	24331	4.654597744808	7
174	25009	4.754598588213	7
174	25687	4.854599431619	7
174	26365	4.954600275024	7
174	27052	5.054601118429	7
174	27730	5.154601961831	7
174	28402	5.25460280516	7
174	29080	5.354603648321	7
174	29758	5.45460449122	7
174	30436	5.554605333779	7
174	31114	5.654606175936	7
174	31792	5.754594017643	7
174	32470	5.854594858878	7
173	1354	1.255176428979	7
173	2033	1.355203272402	7
173	2712	1.455217115823	7
173	3390	1.555243959244	7
173	4068	1.655218802664	7
173	4747	1.755180646084	7
173	5425	1.855207489503	7
173	6104	1.955247332922	7
173	6792	2.05523517634	7
173	7470	2.155223019759	7
173	8148	2.255249863176	7
173	8826	2.355172706593	7
173	9504	2.455173550008	7
173	10182	2.555252393423	7
173	10860	2.655266236838	7
173	11538	2.755215080253	7
173	12216	2.855189923668	7
173	12894	2.955229767082	7
173	13580	3.055204610497	7
173	14258	3.15523145391	7
173	14936	3.255219297323	7
173	15614	3.355233140736	7
173	16292	3.455220984148	7
173	16970	3.55516982756	7
173	17648	3.655170670971	7
173	18326	3.755236514381	7
173	19004	3.855211357791	7
173	19682	3.955264201201	7
173	20368	4.055265044609	7
173	21046	4.155187888016	7
173	21724	4.255214731424	7
173	22402	4.355163574832	7
173	23080	4.455229418239	7
173	23758	4.555217261646	7
173	24436	4.655257105052	7
173	25114	4.755205948457	7
173	25792	4.855219791863	7
173	26470	4.955168635268	7
173	27157	5.055182478669	7
173	27835	5.155170322012	7
173	28513	5.255262165206	7
173	29191	5.355224008161	7
173	29869	5.45525085079	7
173	30547	5.555238693028	7
173	31225	5.655187534822	7
173	31903	5.755240376134	7
173	32581	5.855254216948	7
172	6267	2	0
172	13057	3	0
172	19845	4	0
172	26634	5	0
171	6267	2	0.044249
171	13057	3	0.04921
171	19845	4	0.04921
171	26634	5	0.04921
170	6267	2	7
170	13057	3	7
170	19845	4	7
170	26634	5	7
