version 2
run Braking-2-20190107-19:50:34-3811
attr beaconInterval 0.1
attr configname Braking
attr controller 1
attr datetime 20190107-19:50:34
attr experiment Braking
attr headway 0.1
attr humanCars 1
attr humanLanes 1
attr inifile omnetpp.ini
attr iterationvars "$nCars=8, $platoonSize=8, $nLanes=1, $humanCars=1, $humanLanes=1, $ploegH=0.5, $controller=1, $sController=\"CACC\", $headway=0.1, $leaderHeadway=1.2, $leaderSpeed=100, $beaconInterval=0.1, $priority=4, $packetSize=200, $0=5, $1=0"
attr iterationvarsf nCars=8,platoonSize=8,nLanes=1,humanCars=1,humanLanes=1,ploegH=0.5,controller=1,sController=CACC,headway=0.1,leaderHeadway=1.2,leaderSpeed=100,beaconInterval=0.1,priority=4,packetSize=200,5,0-
attr leaderHeadway 1.2
attr leaderSpeed 100
attr measurement "$nCars=8, $platoonSize=8, $nLanes=1, $humanCars=1, $humanLanes=1, $ploegH=0.5, $controller=1, $sController=\"CACC\", $headway=0.1, $leaderHeadway=1.2, $leaderSpeed=100, $beaconInterval=0.1, $priority=4, $packetSize=200, $0=5, $1=0"
attr nCars 8
attr nLanes 1
attr network Highway
attr packetSize 200
attr platoonSize 8
attr ploegH 0.5
attr priority 4
attr processid 3811
attr repetition 0
attr replication #0
attr resultdir results
attr runnumber 2
attr sController "\"CACC\""
attr seedset 0
param **.coreDebug false
param **.debug false
param **.headway 0.1s
param **.numberOfCars 8
param **.numberOfCarsPerPlatoon 8
param **.numberOfHumanCars 1
param **.numberOfHumanLanes 1
param **.numberOfLanes 1
param **.numericController 1
param **.seed 0
param **.traffic.humanCars 1
param **.traffic.humanLanes 1
param **.traffic.humanVType "\"vtypehuman\""
param **.traffic.nCars 8
param **.traffic.nLanes 1
param **.traffic.platoonInsertDistance 5m
param **.traffic.platoonInsertHeadway 0s
param **.traffic.platoonInsertSpeed 100kmph
param **.traffic.platoonInsertTime "1 s"
param **.traffic.platoonLeaderHeadway 1.2s
param **.traffic.platoonSize 8
param **.traffic.platooningVType "\"vtypeauto\""
param **.traffic_type "\"PlatoonsPlusHumanTraffic\""
param *.**.nic.mac1609_4.bitrate 6Mbps
param *.**.nic.mac1609_4.txPower 100mW
param *.**.nic.mac1609_4.useServiceChannel false
param *.**.nic.phy80211p.analogueModels "xmldoc(\"config.xml\")"
param *.**.nic.phy80211p.decider "xmldoc(\"config.xml\")"
param *.**.nic.phy80211p.maxTXPower 100mW
param *.**.nic.phy80211p.sensitivity -94dBm
param *.**.nic.phy80211p.thermalNoise -95dBm
param *.**.nic.phy80211p.usePropagationDelay true
param *.**.nic.phy80211p.useThermalNoise true
param *.annotations.draw false
param *.connectionManager.drawMaxIntfDist false
param *.connectionManager.maxInterfDist 2600m
param *.connectionManager.sendDirect true
param *.human[*].mobility.x 0
param *.human[*].mobility.y 0
param *.human[*].mobility.z 1.895
param *.human[*].prot.beaconingInterval "0.1 s"
param *.human[*].prot.bitrate "3 Mbps"
param *.human[*].prot.packetSize 200
param *.human[*].prot.priority 4
param *.human[*].prot.txPower "100 mW"
param *.manager.autoShutdown true
param *.manager.configFile "\"./sumocfg/freeway.sumo.cfg\""
param *.manager.host "\"localhost\""
param *.manager.margin 25
param *.manager.moduleDisplayString "\"\""
param *.manager.moduleName "\"vtypeauto=node vtypehuman=human\""
param *.manager.moduleType "\"vtypeauto=org.car2x.veins.modules.application.platooning.PlatoonCar vtypehuman=HumanCar\""
param *.manager.updateInterval 0.01s
param *.manager.useGui true
param *.node[*].appl_type "\"SimplePlatooningApp\""
param *.node[*].helper.nCars 8
param *.node[*].helper.nLanes 1
param *.node[*].helper.platoonSize 8
param *.node[*].helper_type "\"PositionHelper\""
param *.node[*].mobility.x 0
param *.node[*].mobility.y 0
param *.node[*].mobility.z 1.895
param *.node[*].prot.beaconingInterval 0.1s
param *.node[*].prot.packetSize 200
param *.node[*].prot.priority 4
param *.node[*].prot.useControllerAcceleration true
param *.node[*].protocol_type "\"SimplePlatooningBeaconing\""
param *.node[*].scenario.accHeadway 0.1s
param *.node[*].scenario.brakingDeceleration "8 mpsps"
param *.node[*].scenario.caccC1 0.5
param *.node[*].scenario.caccOmegaN "0.2 Hz"
param *.node[*].scenario.caccXi 1
param *.node[*].scenario.controller "\"CACC\""
param *.node[*].scenario.engineTau "0.5 s"
param *.node[*].scenario.leaderHeadway 1.2s
param *.node[*].scenario.leaderOscillationFrequency "0.2 Hz"
param *.node[*].scenario.leaderSpeed 100kmph
param *.node[*].scenario.ploegH 0.5s
param *.node[*].scenario.ploegKd 0.7
param *.node[*].scenario.ploegKp 0.2
param *.node[*].scenario.startBraking "5 s"
param *.node[*].scenario.useRealisticEngine false
param *.node[*].scenario.vehicleFile "\"./sumocfg/vehicles.xml\""
param *.node[*].scenario_type "\"BrakingScenario\""
param *.node[*].unicast.packetLossRate 0
param *.obstacles.debug false
param *.playgroundSizeX 65000m
param *.playgroundSizeY 25000m
param *.playgroundSizeZ 50m
param *.world.use2D false
param *.world.useTorus false

vector 1  Highway.node[0].appl  distance  ETV
vector 2  Highway.node[0].appl  relativeSpeed  ETV
vector 3  Highway.node[0].appl  nodeId  ETV
vector 7  Highway.node[0].appl  acceleration  ETV
vector 8  Highway.node[0].appl  controllerAcceleration  ETV
vector 4  Highway.node[0].appl  speed  ETV
vector 5  Highway.node[0].appl  posx  ETV
vector 6  Highway.node[0].appl  posy  ETV
vector 24  Highway.node[1].appl  distance  ETV
vector 25  Highway.node[1].appl  relativeSpeed  ETV
vector 26  Highway.node[1].appl  nodeId  ETV
vector 30  Highway.node[1].appl  acceleration  ETV
vector 31  Highway.node[1].appl  controllerAcceleration  ETV
vector 27  Highway.node[1].appl  speed  ETV
vector 28  Highway.node[1].appl  posx  ETV
vector 29  Highway.node[1].appl  posy  ETV
vector 47  Highway.node[2].appl  distance  ETV
vector 48  Highway.node[2].appl  relativeSpeed  ETV
vector 49  Highway.node[2].appl  nodeId  ETV
vector 53  Highway.node[2].appl  acceleration  ETV
vector 54  Highway.node[2].appl  controllerAcceleration  ETV
vector 50  Highway.node[2].appl  speed  ETV
vector 51  Highway.node[2].appl  posx  ETV
vector 52  Highway.node[2].appl  posy  ETV
vector 70  Highway.node[3].appl  distance  ETV
vector 71  Highway.node[3].appl  relativeSpeed  ETV
vector 72  Highway.node[3].appl  nodeId  ETV
vector 76  Highway.node[3].appl  acceleration  ETV
vector 77  Highway.node[3].appl  controllerAcceleration  ETV
vector 73  Highway.node[3].appl  speed  ETV
vector 74  Highway.node[3].appl  posx  ETV
vector 75  Highway.node[3].appl  posy  ETV
vector 93  Highway.node[4].appl  distance  ETV
vector 94  Highway.node[4].appl  relativeSpeed  ETV
vector 95  Highway.node[4].appl  nodeId  ETV
vector 99  Highway.node[4].appl  acceleration  ETV
vector 100  Highway.node[4].appl  controllerAcceleration  ETV
vector 96  Highway.node[4].appl  speed  ETV
vector 97  Highway.node[4].appl  posx  ETV
vector 98  Highway.node[4].appl  posy  ETV
vector 116  Highway.node[5].appl  distance  ETV
vector 117  Highway.node[5].appl  relativeSpeed  ETV
vector 118  Highway.node[5].appl  nodeId  ETV
vector 122  Highway.node[5].appl  acceleration  ETV
vector 123  Highway.node[5].appl  controllerAcceleration  ETV
vector 119  Highway.node[5].appl  speed  ETV
vector 120  Highway.node[5].appl  posx  ETV
vector 121  Highway.node[5].appl  posy  ETV
vector 139  Highway.node[6].appl  distance  ETV
vector 140  Highway.node[6].appl  relativeSpeed  ETV
vector 141  Highway.node[6].appl  nodeId  ETV
vector 145  Highway.node[6].appl  acceleration  ETV
vector 146  Highway.node[6].appl  controllerAcceleration  ETV
vector 142  Highway.node[6].appl  speed  ETV
vector 143  Highway.node[6].appl  posx  ETV
vector 144  Highway.node[6].appl  posy  ETV
vector 162  Highway.node[7].appl  distance  ETV
vector 163  Highway.node[7].appl  relativeSpeed  ETV
vector 164  Highway.node[7].appl  nodeId  ETV
vector 168  Highway.node[7].appl  acceleration  ETV
vector 169  Highway.node[7].appl  controllerAcceleration  ETV
vector 165  Highway.node[7].appl  speed  ETV
vector 166  Highway.node[7].appl  posx  ETV
vector 167  Highway.node[7].appl  posy  ETV
vector 84  Highway.node[3].prot  frontDelay  ETV
vector 82  Highway.node[3].prot  frontDelayId  ETV
vector 61  Highway.node[2].prot  frontDelay  ETV
vector 59  Highway.node[2].prot  frontDelayId  ETV
vector 176  Highway.node[7].prot  frontDelay  ETV
vector 174  Highway.node[7].prot  frontDelayId  ETV
vector 37  Highway.node[1].prot  leaderDelay  ETV
vector 35  Highway.node[1].prot  leaderDelayId  ETV
vector 38  Highway.node[1].prot  frontDelay  ETV
vector 36  Highway.node[1].prot  frontDelayId  ETV
vector 60  Highway.node[2].prot  leaderDelay  ETV
vector 58  Highway.node[2].prot  leaderDelayId  ETV
vector 83  Highway.node[3].prot  leaderDelay  ETV
vector 81  Highway.node[3].prot  leaderDelayId  ETV
vector 106  Highway.node[4].prot  leaderDelay  ETV
vector 104  Highway.node[4].prot  leaderDelayId  ETV
vector 129  Highway.node[5].prot  leaderDelay  ETV
vector 127  Highway.node[5].prot  leaderDelayId  ETV
vector 152  Highway.node[6].prot  leaderDelay  ETV
vector 150  Highway.node[6].prot  leaderDelayId  ETV
vector 175  Highway.node[7].prot  leaderDelay  ETV
vector 173  Highway.node[7].prot  leaderDelayId  ETV
vector 130  Highway.node[5].prot  frontDelay  ETV
vector 128  Highway.node[5].prot  frontDelayId  ETV
vector 107  Highway.node[4].prot  frontDelay  ETV
vector 105  Highway.node[4].prot  frontDelayId  ETV
vector 153  Highway.node[6].prot  frontDelay  ETV
vector 151  Highway.node[6].prot  frontDelayId  ETV
vector 9  Highway.node[0].prot  nodeId  ETV
vector 10  Highway.node[0].prot  busyTime  ETV
vector 11  Highway.node[0].prot  collisions  ETV
vector 32  Highway.node[1].prot  nodeId  ETV
vector 33  Highway.node[1].prot  busyTime  ETV
vector 34  Highway.node[1].prot  collisions  ETV
vector 55  Highway.node[2].prot  nodeId  ETV
vector 56  Highway.node[2].prot  busyTime  ETV
vector 57  Highway.node[2].prot  collisions  ETV
vector 78  Highway.node[3].prot  nodeId  ETV
vector 79  Highway.node[3].prot  busyTime  ETV
vector 80  Highway.node[3].prot  collisions  ETV
vector 101  Highway.node[4].prot  nodeId  ETV
vector 102  Highway.node[4].prot  busyTime  ETV
vector 103  Highway.node[4].prot  collisions  ETV
vector 124  Highway.node[5].prot  nodeId  ETV
vector 125  Highway.node[5].prot  busyTime  ETV
vector 126  Highway.node[5].prot  collisions  ETV
vector 147  Highway.node[6].prot  nodeId  ETV
vector 148  Highway.node[6].prot  busyTime  ETV
vector 149  Highway.node[6].prot  collisions  ETV
vector 170  Highway.node[7].prot  nodeId  ETV
vector 171  Highway.node[7].prot  busyTime  ETV
vector 172  Highway.node[7].prot  collisions  ETV
8	300	1.11	-0.00218518
8	980	1.21	-0.00213419
8	1658	1.31	-0.00205408
8	2337	1.41	-0.00195152
8	3016	1.51	-0.00183238
8	3694	1.61	-0.00170178
8	4372	1.71	-0.00156412
8	5051	1.81	-0.00142314
8	5729	1.91	-0.00128196
8	6418	2.01	-0.00114315
8	7096	2.11	-0.00100877
8	7774	2.21	-0.000880447
8	8452	2.31	-0.000759381
8	9130	2.41	-0.000646445
8	9808	2.51	-0.000542204
8	10486	2.61	-0.000446965
8	11164	2.71	-0.000360819
8	11842	2.81	-0.000283678
8	12520	2.91	-0.000215307
8	13206	3.01	-0.000155357
8	13884	3.11	-0.000103391
8	14562	3.21	-5.89069e-05
8	15240	3.31	-2.13575e-05
8	15918	3.41	9.82919e-06
8	16596	3.51	3.52368e-05
8	17274	3.61	5.54479e-05
8	17952	3.71	7.10335e-05
8	18630	3.81	8.25451e-05
8	19308	3.91	9.05081e-05
8	19994	4.01	9.54172e-05
8	20672	4.11	9.7733e-05
8	21350	4.21	9.78798e-05
8	22028	4.31	9.62447e-05
8	22706	4.41	9.31771e-05
8	23384	4.51	8.89894e-05
8	24062	4.61	8.39579e-05
8	24740	4.71	7.83245e-05
8	25418	4.81	7.22983e-05
8	26096	4.91	6.6058e-05
8	26783	5.01	-8
8	27461	5.11	-8
8	28139	5.21	-8
8	28817	5.31	-8
8	29495	5.41	-8
8	30173	5.51	-8
8	30851	5.61	-8
8	31529	5.71	-8
8	32207	5.81	-8
8	32885	5.91	-8
8	33571	6.01	-8
8	34249	6.11	-8
8	34927	6.21	-8
8	35605	6.31	-8
8	36283	6.41	-8
8	36961	6.51	-8
8	37639	6.61	-8
8	38317	6.71	-8
8	38995	6.81	-8
8	39673	6.91	-8
8	40359	7.01	-8
8	41037	7.11	-8
8	41715	7.21	-8
8	42393	7.31	-8
8	43071	7.41	-8
8	43749	7.51	-8
8	44427	7.61	-8
8	45105	7.71	-8
8	45783	7.81	-8
8	46461	7.91	-8
8	47147	8.01	-8
8	47825	8.11	-8
8	48503	8.21	-8
7	300	1.11	-0.000358191
7	980	1.21	-0.000681704
7	1658	1.31	-0.00093487
7	2337	1.41	-0.00112579
7	3016	1.51	-0.00126221
7	3694	1.61	-0.00135149
7	4372	1.71	-0.00140049
7	5051	1.81	-0.00141557
7	5729	1.91	-0.00140255
7	6418	2.01	-0.00136671
7	7096	2.11	-0.0013128
7	7774	2.21	-0.00124502
7	8452	2.31	-0.0011671
7	9130	2.41	-0.00108223
7	9808	2.51	-0.000993208
7	10486	2.61	-0.000902362
7	11164	2.71	-0.000811651
7	11842	2.81	-0.000722679
7	12520	2.91	-0.000636729
7	13206	3.01	-0.0005548
7	13884	3.11	-0.000477639
7	14562	3.21	-0.000405773
7	15240	3.31	-0.00033954
7	15918	3.41	-0.000279116
7	16596	3.51	-0.000224541
7	17274	3.61	-0.000175743
7	17952	3.71	-0.00013256
7	18630	3.81	-9.47571e-05
7	19308	3.91	-6.2046e-05
7	19994	4.01	-3.40986e-05
7	20672	4.11	-1.05605e-05
7	21350	4.21	8.93844e-06
7	22028	4.31	2.4774e-05
7	22706	4.41	3.73203e-05
7	23384	4.51	4.69433e-05
7	24062	4.61	5.39956e-05
7	24740	4.71	5.88124e-05
7	25418	4.81	6.1709e-05
7	26096	4.91	6.29785e-05
7	26783	5.01	-0.156801
7	27461	5.11	-1.56585
7	28139	5.21	-2.72175
7	28817	5.31	-3.67
7	29495	5.41	-4.44789
7	30173	5.51	-5.08603
7	30851	5.61	-5.60953
7	31529	5.71	-6.03898
7	32207	5.81	-6.39128
7	32885	5.91	-6.68029
7	33571	6.01	-6.91738
7	34249	6.11	-7.11187
7	34927	6.21	-7.27143
7	35605	6.31	-7.40232
7	36283	6.41	-7.50969
7	36961	6.51	-7.59778
7	37639	6.61	-7.67004
7	38317	6.71	-7.72932
7	38995	6.81	-7.77794
7	39673	6.91	-7.81784
7	40359	7.01	-7.85056
7	41037	7.11	-7.87741
7	41715	7.21	-7.89943
7	42393	7.31	-7.9175
7	43071	7.41	-7.93232
7	43749	7.51	-7.94448
7	44427	7.61	-7.95445
7	45105	7.71	-7.96264
7	45783	7.81	-7.96935
7	46461	7.91	-7.97486
7	47147	8.01	-7.97937
7	47825	8.11	-7.98308
7	48503	8.21	-7.98612
6	300	1.11	242.45
6	980	1.21	242.45
6	1658	1.31	242.45
6	2337	1.41	242.45
6	3016	1.51	242.45
6	3694	1.61	242.45
6	4372	1.71	242.45
6	5051	1.81	242.45
6	5729	1.91	242.45
6	6418	2.01	242.45
6	7096	2.11	242.45
6	7774	2.21	242.45
6	8452	2.31	242.45
6	9130	2.41	242.45
6	9808	2.51	242.45
6	10486	2.61	242.45
6	11164	2.71	242.45
6	11842	2.81	242.45
6	12520	2.91	242.45
6	13206	3.01	242.45
6	13884	3.11	242.45
6	14562	3.21	242.45
6	15240	3.31	242.45
6	15918	3.41	242.45
6	16596	3.51	242.45
6	17274	3.61	242.45
6	17952	3.71	242.45
6	18630	3.81	242.45
6	19308	3.91	242.45
6	19994	4.01	242.45
6	20672	4.11	242.45
6	21350	4.21	242.45
6	22028	4.31	242.45
6	22706	4.41	242.45
6	23384	4.51	242.45
6	24062	4.61	242.45
6	24740	4.71	242.45
6	25418	4.81	242.45
6	26096	4.91	242.45
6	26783	5.01	242.45
6	27461	5.11	242.45
6	28139	5.21	242.45
6	28817	5.31	242.45
6	29495	5.41	242.45
6	30173	5.51	242.45
6	30851	5.61	242.45
6	31529	5.71	242.45
6	32207	5.81	242.45
6	32885	5.91	242.45
6	33571	6.01	242.45
6	34249	6.11	242.45
6	34927	6.21	242.45
6	35605	6.31	242.45
6	36283	6.41	242.45
6	36961	6.51	242.45
6	37639	6.61	242.45
6	38317	6.71	242.45
6	38995	6.81	242.45
6	39673	6.91	242.45
6	40359	7.01	242.45
6	41037	7.11	242.45
6	41715	7.21	242.45
6	42393	7.31	242.45
6	43071	7.41	242.45
6	43749	7.51	242.45
6	44427	7.61	242.45
6	45105	7.71	242.45
6	45783	7.81	242.45
6	46461	7.91	242.45
6	47147	8.01	242.45
6	47825	8.11	242.45
6	48503	8.21	242.45
5	300	1.11	73.9402
5	980	1.21	76.7182
5	1658	1.31	79.4962
5	2337	1.41	82.2742
5	3016	1.51	85.0521
5	3694	1.61	87.8301
5	4372	1.71	90.608
5	5051	1.81	93.386
5	5729	1.91	96.1639
5	6418	2.01	98.9418
5	7096	2.11	101.72
5	7774	2.21	104.498
5	8452	2.31	107.275
5	9130	2.41	110.053
5	9808	2.51	112.831
5	10486	2.61	115.609
5	11164	2.71	118.387
5	11842	2.81	121.165
5	12520	2.91	123.942
5	13206	3.01	126.72
5	13884	3.11	129.498
5	14562	3.21	132.276
5	15240	3.31	135.054
5	15918	3.41	137.831
5	16596	3.51	140.609
5	17274	3.61	143.387
5	17952	3.71	146.165
5	18630	3.81	148.942
5	19308	3.91	151.72
5	19994	4.01	154.498
5	20672	4.11	157.276
5	21350	4.21	160.053
5	22028	4.31	162.831
5	22706	4.41	165.609
5	23384	4.51	168.387
5	24062	4.61	171.165
5	24740	4.71	173.942
5	25418	4.81	176.72
5	26096	4.91	179.498
5	26783	5.01	182.276
5	27461	5.11	185.05
5	28139	5.21	187.808
5	28817	5.31	190.538
5	29495	5.41	193.231
5	30173	5.51	195.88
5	30851	5.61	198.477
5	31529	5.71	201.019
5	32207	5.81	203.5
5	32885	5.91	205.916
5	33571	6.01	208.266
5	34249	6.11	210.547
5	34927	6.21	212.757
5	35605	6.31	214.893
5	36283	6.41	216.956
5	36961	6.51	218.943
5	37639	6.61	220.855
5	38317	6.71	222.69
5	38995	6.81	224.447
5	39673	6.91	226.127
5	40359	7.01	227.728
5	41037	7.11	229.251
5	41715	7.21	230.696
5	42393	7.31	232.061
5	43071	7.41	233.347
5	43749	7.51	234.554
5	44427	7.61	235.681
5	45105	7.71	236.729
5	45783	7.81	237.697
5	46461	7.91	238.585
5	47147	8.01	239.394
5	47825	8.11	240.123
5	48503	8.21	240.772
4	300	1.11	27.78
4	980	1.21	27.7799
4	1658	1.31	27.7798
4	2337	1.41	27.7797
4	3016	1.51	27.7796
4	3694	1.61	27.7795
4	4372	1.71	27.7794
4	5051	1.81	27.7792
4	5729	1.91	27.7791
4	6418	2.01	27.7789
4	7096	2.11	27.7788
4	7774	2.21	27.7787
4	8452	2.31	27.7785
4	9130	2.41	27.7784
4	9808	2.51	27.7783
4	10486	2.61	27.7782
4	11164	2.71	27.7782
4	11842	2.81	27.7781
4	12520	2.91	27.778
4	13206	3.01	27.7779
4	13884	3.11	27.7779
4	14562	3.21	27.7779
4	15240	3.31	27.7778
4	15918	3.41	27.7778
4	16596	3.51	27.7778
4	17274	3.61	27.7777
4	17952	3.71	27.7777
4	18630	3.81	27.7777
4	19308	3.91	27.7777
4	19994	4.01	27.7777
4	20672	4.11	27.7777
4	21350	4.21	27.7777
4	22028	4.31	27.7777
4	22706	4.41	27.7777
4	23384	4.51	27.7777
4	24062	4.61	27.7777
4	24740	4.71	27.7777
4	25418	4.81	27.7777
4	26096	4.91	27.7777
4	26783	5.01	27.7762
4	27461	5.11	27.6807
4	28139	5.21	27.4586
4	28817	5.31	27.1328
4	29495	5.41	26.7217
4	30173	5.51	26.2408
4	30851	5.61	25.7025
4	31529	5.71	25.1173
4	32207	5.81	24.4934
4	32885	5.91	23.8379
4	33571	6.01	23.1565
4	34249	6.11	22.4537
4	34927	6.21	21.7335
4	35605	6.31	20.9989
4	36283	6.41	20.2526
4	36961	6.51	19.4967
4	37639	6.61	18.7328
4	38317	6.71	17.9624
4	38995	6.81	17.1867
4	39673	6.91	16.4067
4	40359	7.01	15.6231
4	41037	7.11	14.8365
4	41715	7.21	14.0475
4	42393	7.31	13.2565
4	43071	7.41	12.4639
4	43749	7.51	11.67
4	44427	7.61	10.875
4	45105	7.71	10.0791
4	45783	7.81	9.28245
4	46461	7.91	8.4852
4	47147	8.01	7.68746
4	47825	8.11	6.88931
4	48503	8.21	6.09083
2	300	1.11	0
2	980	1.21	0
2	1658	1.31	0
2	2337	1.41	0
2	3016	1.51	0
2	3694	1.61	0
2	4372	1.71	0
2	5051	1.81	0
2	5729	1.91	0
2	6418	2.01	0
2	7096	2.11	0
2	7774	2.21	0
2	8452	2.31	0
2	9130	2.41	0
2	9808	2.51	0
2	10486	2.61	0
2	11164	2.71	0
2	11842	2.81	0
2	12520	2.91	0
2	13206	3.01	0
2	13884	3.11	0
2	14562	3.21	0
2	15240	3.31	0
2	15918	3.41	0
2	16596	3.51	0
2	17274	3.61	0
2	17952	3.71	0
2	18630	3.81	0
2	19308	3.91	0
2	19994	4.01	0
2	20672	4.11	0
2	21350	4.21	0
2	22028	4.31	0
2	22706	4.41	0
2	23384	4.51	0
2	24062	4.61	0
2	24740	4.71	0
2	25418	4.81	0
2	26096	4.91	0
2	26783	5.01	0
2	27461	5.11	0
2	28139	5.21	0
2	28817	5.31	0
2	29495	5.41	0
2	30173	5.51	0
2	30851	5.61	0
2	31529	5.71	0
2	32207	5.81	0
2	32885	5.91	0
2	33571	6.01	0
2	34249	6.11	0
2	34927	6.21	0
2	35605	6.31	0
2	36283	6.41	0
2	36961	6.51	0
2	37639	6.61	0
2	38317	6.71	0
2	38995	6.81	0
2	39673	6.91	0
2	40359	7.01	0
2	41037	7.11	0
2	41715	7.21	0
2	42393	7.31	0
2	43071	7.41	0
2	43749	7.51	0
2	44427	7.61	0
2	45105	7.71	0
2	45783	7.81	0
2	46461	7.91	0
2	47147	8.01	0
2	47825	8.11	0
2	48503	8.21	0
1	300	1.11	-1
1	980	1.21	-1
1	1658	1.31	-1
1	2337	1.41	-1
1	3016	1.51	-1
1	3694	1.61	-1
1	4372	1.71	-1
1	5051	1.81	-1
1	5729	1.91	-1
1	6418	2.01	-1
1	7096	2.11	-1
1	7774	2.21	-1
1	8452	2.31	-1
1	9130	2.41	-1
1	9808	2.51	-1
1	10486	2.61	-1
1	11164	2.71	-1
1	11842	2.81	-1
1	12520	2.91	-1
1	13206	3.01	-1
1	13884	3.11	-1
1	14562	3.21	-1
1	15240	3.31	-1
1	15918	3.41	-1
1	16596	3.51	-1
1	17274	3.61	-1
1	17952	3.71	-1
1	18630	3.81	-1
1	19308	3.91	-1
1	19994	4.01	-1
1	20672	4.11	-1
1	21350	4.21	-1
1	22028	4.31	-1
1	22706	4.41	-1
1	23384	4.51	-1
1	24062	4.61	-1
1	24740	4.71	-1
1	25418	4.81	-1
1	26096	4.91	-1
1	26783	5.01	-1
1	27461	5.11	-1
1	28139	5.21	-1
1	28817	5.31	-1
1	29495	5.41	-1
1	30173	5.51	-1
1	30851	5.61	-1
1	31529	5.71	-1
1	32207	5.81	-1
1	32885	5.91	-1
1	33571	6.01	-1
1	34249	6.11	-1
1	34927	6.21	-1
1	35605	6.31	-1
1	36283	6.41	-1
1	36961	6.51	-1
1	37639	6.61	-1
1	38317	6.71	-1
1	38995	6.81	-1
1	39673	6.91	-1
1	40359	7.01	-1
1	41037	7.11	-1
1	41715	7.21	-1
1	42393	7.31	-1
1	43071	7.41	-1
1	43749	7.51	-1
1	44427	7.61	-1
1	45105	7.71	-1
1	45783	7.81	-1
1	46461	7.91	-1
1	47147	8.01	-1
1	47825	8.11	-1
1	48503	8.21	-1
3	300	1.11	0
3	980	1.21	0
3	1658	1.31	0
3	2337	1.41	0
3	3016	1.51	0
3	3694	1.61	0
3	4372	1.71	0
3	5051	1.81	0
3	5729	1.91	0
3	6418	2.01	0
3	7096	2.11	0
3	7774	2.21	0
3	8452	2.31	0
3	9130	2.41	0
3	9808	2.51	0
3	10486	2.61	0
3	11164	2.71	0
3	11842	2.81	0
3	12520	2.91	0
3	13206	3.01	0
3	13884	3.11	0
3	14562	3.21	0
3	15240	3.31	0
3	15918	3.41	0
3	16596	3.51	0
3	17274	3.61	0
3	17952	3.71	0
3	18630	3.81	0
3	19308	3.91	0
3	19994	4.01	0
3	20672	4.11	0
3	21350	4.21	0
3	22028	4.31	0
3	22706	4.41	0
3	23384	4.51	0
3	24062	4.61	0
3	24740	4.71	0
3	25418	4.81	0
3	26096	4.91	0
3	26783	5.01	0
3	27461	5.11	0
3	28139	5.21	0
3	28817	5.31	0
3	29495	5.41	0
3	30173	5.51	0
3	30851	5.61	0
3	31529	5.71	0
3	32207	5.81	0
3	32885	5.91	0
3	33571	6.01	0
3	34249	6.11	0
3	34927	6.21	0
3	35605	6.31	0
3	36283	6.41	0
3	36961	6.51	0
3	37639	6.61	0
3	38317	6.71	0
3	38995	6.81	0
3	39673	6.91	0
3	40359	7.01	0
3	41037	7.11	0
3	41715	7.21	0
3	42393	7.31	0
3	43071	7.41	0
3	43749	7.51	0
3	44427	7.61	0
3	45105	7.71	0
3	45783	7.81	0
3	46461	7.91	0
3	47147	8.01	0
3	47825	8.11	0
3	48503	8.21	0
11	6260	2	0
11	13050	3	0
11	19838	4	0
11	26627	5	0
11	33415	6	0
11	40203	7	0
11	46991	8	0
10	6260	2	0.044249
10	13050	3	0.04921
10	19838	4	0.04921
10	26627	5	0.04921
10	33415	6	0.04921
10	40203	7	0.04921
10	46991	8	0.04921
9	6260	2	0
9	13050	3	0
9	19838	4	0
9	26627	5	0
9	33415	6	0
9	40203	7	0
9	46991	8	0
31	301	1.11	0
31	981	1.21	-0.00217285
31	1659	1.31	-0.00213775
31	2338	1.41	-0.0020631
31	3017	1.51	-0.00195808
31	3695	1.61	-0.00183085
31	4373	1.71	-0.00172846
31	5052	1.81	-0.00157681
31	5730	1.91	-0.00146105
31	6419	2.01	-0.00130536
31	7097	2.11	-0.00115331
31	7775	2.21	-0.00104775
31	8453	2.31	-0.000910733
31	9131	2.41	-0.000783914
31	9809	2.51	-0.000668494
31	10487	2.61	-0.000565227
31	11165	2.71	-0.000474485
31	11843	2.81	-0.000396326
31	12521	2.91	-0.00033054
31	13207	3.01	-0.000236741
31	13885	3.11	-0.000194553
31	14563	3.21	-0.000123291
31	15241	3.31	-0.000102323
31	15919	3.41	-5.07776e-05
31	16597	3.51	-7.92794e-06
31	17275	3.61	2.69549e-05
31	17953	3.71	1.46558e-05
31	18631	3.81	3.61469e-05
31	19309	3.91	5.21747e-05
31	19995	4.01	6.3421e-05
31	20673	4.11	7.05393e-05
31	21351	4.21	7.41479e-05
31	22029	4.31	7.48229e-05
31	22707	4.41	7.30949e-05
31	23385	4.51	6.94465e-05
31	24063	4.61	6.4311e-05
31	24741	4.71	5.80739e-05
31	25419	4.81	5.10725e-05
31	26097	4.91	4.35991e-05
31	26784	5.01	3.59033e-05
31	27462	5.11	-8.02461
31	28140	5.21	-8.06069
31	28818	5.31	-8.09024
31	29496	5.41	-8.11414
31	30174	5.51	-8.13332
31	30852	5.61	-8.14841
31	31530	5.71	-8.16003
31	32208	5.81	-8.16873
31	32886	5.91	-8.17497
31	33572	6.01	-8.17909
31	34250	6.11	-8.18145
31	34928	6.21	-8.18233
31	35606	6.31	-8.18202
31	36284	6.41	-8.18065
31	36962	6.51	-8.17846
31	37640	6.61	-8.17558
31	38318	6.71	-8.17214
31	38996	6.81	-8.16823
31	39674	6.91	-8.16401
31	40360	7.01	-8.15949
31	41038	7.11	-8.1548
31	41716	7.21	-8.14994
31	42394	7.31	-8.14503
31	43072	7.41	-8.14004
31	43750	7.51	-8.13504
31	44428	7.61	-8.13005
31	45106	7.71	-8.12511
31	45784	7.81	-8.12019
31	46462	7.91	-8.11537
31	47148	8.01	-8.11063
31	47826	8.11	-8.10599
31	48504	8.21	-8.10145
30	301	1.11	0
30	981	1.21	-0.00020453
30	1659	1.31	-0.000554877
30	2338	1.41	-0.000832247
30	3017	1.51	-0.00104351
30	3695	1.61	-0.00119586
30	4373	1.71	-0.00130032
30	5052	1.81	-0.00136297
30	5730	1.91	-0.00139051
30	6419	2.01	-0.00138854
30	7097	2.11	-0.00135929
30	7775	2.21	-0.00131236
30	8453	2.31	-0.00125193
30	9131	2.41	-0.0011787
30	9809	2.51	-0.00109691
30	10487	2.61	-0.00101022
30	11165	2.71	-0.000921739
30	11843	2.81	-0.000834034
30	12521	2.91	-0.000749208
30	13207	3.01	-0.000665159
30	13885	3.11	-0.000584221
30	14563	3.21	-0.000507502
30	15241	3.31	-0.000436504
30	15919	3.41	-0.00037161
30	16597	3.51	-0.00030993
30	17275	3.61	-0.000252384
30	17953	3.71	-0.000203358
30	18631	3.81	-0.000162163
30	19309	3.91	-0.000125022
30	19995	4.01	-9.21226e-05
30	20673	4.11	-6.35018e-05
30	21351	4.21	-3.90742e-05
30	22029	4.31	-1.8663e-05
30	22707	4.41	-2.02385e-06
30	23385	4.51	1.11347e-05
30	24063	4.61	2.11338e-05
30	24741	4.71	2.83102e-05
30	25419	4.81	3.30049e-05
30	26097	4.91	3.55541e-05
30	26784	5.01	3.62819e-05
30	27462	5.11	-0.756117
30	28140	5.21	-2.065
30	28818	5.31	-3.14467
30	29496	5.41	-4.0352
30	30174	5.51	-4.76963
30	30852	5.61	-5.3752
30	31530	5.71	-5.87439
30	32208	5.81	-6.28572
30	32886	5.91	-6.62451
30	33572	6.01	-6.90336
30	34250	6.11	-7.13269
30	34928	6.21	-7.32112
30	35606	6.31	-7.47574
30	36284	6.41	-7.60244
30	36962	6.51	-7.70605
30	37640	6.61	-7.79059
30	38318	6.71	-7.85938
30	38996	6.81	-7.91515
30	39674	6.91	-7.96017
30	40360	7.01	-7.99631
30	41038	7.11	-8.02514
30	41716	7.21	-8.04792
30	42394	7.31	-8.06574
30	43072	7.41	-8.07947
30	43750	7.51	-8.08984
30	44428	7.61	-8.09744
30	45106	7.71	-8.10279
30	45784	7.81	-8.1063
30	46462	7.91	-8.1083
30	47148	8.01	-8.10908
30	47826	8.11	-8.10888
30	48504	8.21	-8.1079
29	301	1.11	242.45
29	981	1.21	242.45
29	1659	1.31	242.45
29	2338	1.41	242.45
29	3017	1.51	242.45
29	3695	1.61	242.45
29	4373	1.71	242.45
29	5052	1.81	242.45
29	5730	1.91	242.45
29	6419	2.01	242.45
29	7097	2.11	242.45
29	7775	2.21	242.45
29	8453	2.31	242.45
29	9131	2.41	242.45
29	9809	2.51	242.45
29	10487	2.61	242.45
29	11165	2.71	242.45
29	11843	2.81	242.45
29	12521	2.91	242.45
29	13207	3.01	242.45
29	13885	3.11	242.45
29	14563	3.21	242.45
29	15241	3.31	242.45
29	15919	3.41	242.45
29	16597	3.51	242.45
29	17275	3.61	242.45
29	17953	3.71	242.45
29	18631	3.81	242.45
29	19309	3.91	242.45
29	19995	4.01	242.45
29	20673	4.11	242.45
29	21351	4.21	242.45
29	22029	4.31	242.45
29	22707	4.41	242.45
29	23385	4.51	242.45
29	24063	4.61	242.45
29	24741	4.71	242.45
29	25419	4.81	242.45
29	26097	4.91	242.45
29	26784	5.01	242.45
29	27462	5.11	242.45
29	28140	5.21	242.45
29	28818	5.31	242.45
29	29496	5.41	242.45
29	30174	5.51	242.45
29	30852	5.61	242.45
29	31530	5.71	242.45
29	32208	5.81	242.45
29	32886	5.91	242.45
29	33572	6.01	242.45
29	34250	6.11	242.45
29	34928	6.21	242.45
29	35606	6.31	242.45
29	36284	6.41	242.45
29	36962	6.51	242.45
29	37640	6.61	242.45
29	38318	6.71	242.45
29	38996	6.81	242.45
29	39674	6.91	242.45
29	40360	7.01	242.45
29	41038	7.11	242.45
29	41716	7.21	242.45
29	42394	7.31	242.45
29	43072	7.41	242.45
29	43750	7.51	242.45
29	44428	7.61	242.45
29	45106	7.71	242.45
29	45784	7.81	242.45
29	46462	7.91	242.45
29	47148	8.01	242.45
29	47826	8.11	242.45
29	48504	8.21	242.45
28	301	1.11	64.9402
28	981	1.21	67.7182
28	1659	1.31	70.4962
28	2338	1.41	73.2742
28	3017	1.51	76.0522
28	3695	1.61	78.8301
28	4373	1.71	81.6081
28	5052	1.81	84.3861
28	5730	1.91	87.164
28	6419	2.01	89.9419
28	7097	2.11	92.7198
28	7775	2.21	95.4977
28	8453	2.31	98.2756
28	9131	2.41	101.053
28	9809	2.51	103.831
28	10487	2.61	106.609
28	11165	2.71	109.387
28	11843	2.81	112.165
28	12521	2.91	114.943
28	13207	3.01	117.72
28	13885	3.11	120.498
28	14563	3.21	123.276
28	15241	3.31	126.054
28	15919	3.41	128.832
28	16597	3.51	131.609
28	17275	3.61	134.387
28	17953	3.71	137.165
28	18631	3.81	139.943
28	19309	3.91	142.721
28	19995	4.01	145.498
28	20673	4.11	148.276
28	21351	4.21	151.054
28	22029	4.31	153.832
28	22707	4.41	156.609
28	23385	4.51	159.387
28	24063	4.61	162.165
28	24741	4.71	164.943
28	25419	4.81	167.72
28	26097	4.91	170.498
28	26784	5.01	173.276
28	27462	5.11	176.053
28	28140	5.21	178.822
28	28818	5.31	181.57
28	29496	5.41	184.287
28	30174	5.51	186.962
28	30852	5.61	189.59
28	31530	5.71	192.164
28	32208	5.81	194.679
28	32886	5.91	197.13
28	33572	6.01	199.516
28	34250	6.11	201.832
28	34928	6.21	204.077
28	35606	6.31	206.249
28	36284	6.41	208.346
28	36962	6.51	210.367
28	37640	6.61	212.311
28	38318	6.71	214.177
28	38996	6.81	215.964
28	39674	6.91	217.672
28	40360	7.01	219.301
28	41038	7.11	220.849
28	41716	7.21	222.317
28	42394	7.31	223.705
28	43072	7.41	225.012
28	43750	7.51	226.238
28	44428	7.61	227.384
28	45106	7.71	228.448
28	45784	7.81	229.432
28	46462	7.91	230.334
28	47148	8.01	231.155
28	47826	8.11	231.895
28	48504	8.21	232.554
27	301	1.11	27.78
27	981	1.21	27.78
27	1659	1.31	27.78
27	2338	1.41	27.7799
27	3017	1.51	27.7798
27	3695	1.61	27.7797
27	4373	1.71	27.7795
27	5052	1.81	27.7794
27	5730	1.91	27.7793
27	6419	2.01	27.7791
27	7097	2.11	27.779
27	7775	2.21	27.7789
27	8453	2.31	27.7787
27	9131	2.41	27.7786
27	9809	2.51	27.7785
27	10487	2.61	27.7784
27	11165	2.71	27.7783
27	11843	2.81	27.7782
27	12521	2.91	27.7781
27	13207	3.01	27.7781
27	13885	3.11	27.778
27	14563	3.21	27.7779
27	15241	3.31	27.7779
27	15919	3.41	27.7779
27	16597	3.51	27.7778
27	17275	3.61	27.7778
27	17953	3.71	27.7778
27	18631	3.81	27.7778
27	19309	3.91	27.7777
27	19995	4.01	27.7777
27	20673	4.11	27.7777
27	21351	4.21	27.7777
27	22029	4.31	27.7777
27	22707	4.41	27.7777
27	23385	4.51	27.7777
27	24063	4.61	27.7777
27	24741	4.71	27.7777
27	25419	4.81	27.7777
27	26097	4.91	27.7777
27	26784	5.01	27.7777
27	27462	5.11	27.7548
27	28140	5.21	27.6051
27	28818	5.31	27.3375
27	29496	5.41	26.9727
27	30174	5.51	26.5276
27	30852	5.61	26.0164
27	31530	5.71	25.4506
27	32208	5.81	24.8399
27	32886	5.91	24.1922
27	33572	6.01	23.514
27	34250	6.11	22.8106
27	34928	6.21	22.0867
27	35606	6.31	21.3458
27	36284	6.41	20.5911
27	36962	6.51	19.825
27	37640	6.61	19.0496
27	38318	6.71	18.2666
27	38996	6.81	17.4775
27	39674	6.91	16.6834
27	40360	7.01	15.8854
27	41038	7.11	15.0841
27	41716	7.21	14.2803
27	42394	7.31	13.4745
27	43072	7.41	12.6671
27	43750	7.51	11.8586
27	44428	7.61	11.0492
27	45106	7.71	10.2391
27	45784	7.81	9.42862
27	46462	7.91	8.61787
27	47148	8.01	7.80699
27	47826	8.11	6.99608
27	48504	8.21	6.18524
25	301	1.11	-1.84044e-05
25	981	1.21	-6.64177e-05
25	1659	1.31	-0.000108668
25	2338	1.41	-0.000141747
25	3017	1.51	-0.000166792
25	3695	1.61	-0.000184985
25	4373	1.71	-0.000197375
25	5052	1.81	-0.00020455
25	5730	1.91	-0.000207455
25	6419	2.01	-0.000206581
25	7097	2.11	-0.000202844
25	7775	2.21	-0.000196962
25	8453	2.31	-0.000189097
25	9131	2.41	-0.000179826
25	9809	2.51	-0.000169655
25	10487	2.61	-0.00015895
25	11165	2.71	-0.000147955
25	11843	2.81	-0.000136808
25	12521	2.91	-0.000125559
25	13207	3.01	-0.000114298
25	13885	3.11	-0.000103458
25	14563	3.21	-9.29722e-05
25	15241	3.31	-8.30799e-05
25	15919	3.41	-7.35615e-05
25	16597	3.51	-6.46513e-05
25	17275	3.61	-5.65558e-05
25	17953	3.71	-4.92796e-05
25	18631	3.81	-4.23588e-05
25	19309	3.91	-3.58436e-05
25	19995	4.01	-2.98078e-05
25	20673	4.11	-2.42806e-05
25	21351	4.21	-1.9258e-05
25	22029	4.31	-1.47126e-05
25	22707	4.41	-1.06009e-05
25	23385	4.51	-6.86988e-06
25	24063	4.61	-3.46133e-06
25	24741	4.71	-3.15929e-07
25	25419	4.81	2.62407e-06
25	26097	4.91	5.41281e-06
25	26784	5.01	-0.00156054
25	27462	5.11	-0.0740622
25	28140	5.21	-0.146457
25	28818	5.31	-0.204758
25	29496	5.41	-0.250969
25	30174	5.51	-0.286831
25	30852	5.61	-0.31386
25	31530	5.71	-0.333372
25	32208	5.81	-0.346511
25	32886	5.91	-0.354265
25	33572	6.01	-0.35749
25	34250	6.11	-0.356928
25	34928	6.21	-0.353216
25	35606	6.31	-0.346905
25	36284	6.41	-0.338468
25	36962	6.51	-0.328313
25	37640	6.61	-0.316786
25	38318	6.71	-0.304188
25	38996	6.81	-0.290772
25	39674	6.91	-0.276755
25	40360	7.01	-0.262322
25	41038	7.11	-0.247628
25	41716	7.21	-0.232805
25	42394	7.31	-0.217962
25	43072	7.41	-0.203192
25	43750	7.51	-0.188571
25	44428	7.61	-0.174161
25	45106	7.71	-0.160015
25	45784	7.81	-0.146173
25	46462	7.91	-0.132669
25	47148	8.01	-0.119529
25	47826	8.11	-0.106772
25	48504	8.21	-0.0944116
24	301	1.11	5
24	981	1.21	5
24	1659	1.31	4.99999
24	2338	1.41	4.99997
24	3017	1.51	4.99996
24	3695	1.61	4.99994
24	4373	1.71	4.99992
24	5052	1.81	4.9999
24	5730	1.91	4.99988
24	6419	2.01	4.99986
24	7097	2.11	4.99984
24	7775	2.21	4.99982
24	8453	2.31	4.9998
24	9131	2.41	4.99978
24	9809	2.51	4.99976
24	10487	2.61	4.99975
24	11165	2.71	4.99973
24	11843	2.81	4.99972
24	12521	2.91	4.99971
24	13207	3.01	4.99969
24	13885	3.11	4.99968
24	14563	3.21	4.99967
24	15241	3.31	4.99966
24	15919	3.41	4.99966
24	16597	3.51	4.99965
24	17275	3.61	4.99964
24	17953	3.71	4.99964
24	18631	3.81	4.99963
24	19309	3.91	4.99963
24	19995	4.01	4.99963
24	20673	4.11	4.99962
24	21351	4.21	4.99962
24	22029	4.31	4.99962
24	22707	4.41	4.99962
24	23385	4.51	4.99962
24	24063	4.61	4.99962
24	24741	4.71	4.99962
24	25419	4.81	4.99962
24	26097	4.91	4.99962
24	26784	5.01	4.99961
24	27462	5.11	4.99625
24	28140	5.21	4.9851
24	28818	5.31	4.96744
24	29496	5.41	4.94456
24	30174	5.51	4.91759
24	30852	5.61	4.88749
24	31530	5.71	4.85507
24	32208	5.81	4.82103
24	32886	5.91	4.78595
24	33572	6.01	4.75032
24	34250	6.11	4.71457
24	34928	6.21	4.67904
24	35606	6.31	4.64402
24	36284	6.41	4.60973
24	36962	6.51	4.57638
24	37640	6.61	4.54412
24	38318	6.71	4.51306
24	38996	6.81	4.48331
24	39674	6.91	4.45493
24	40360	7.01	4.42797
24	41038	7.11	4.40247
24	41716	7.21	4.37845
24	42394	7.31	4.35591
24	43072	7.41	4.33485
24	43750	7.51	4.31527
24	44428	7.61	4.29713
24	45106	7.71	4.28043
24	45784	7.81	4.26512
24	46462	7.91	4.25118
24	47148	8.01	4.23857
24	47826	8.11	4.22726
24	48504	8.21	4.21721
26	301	1.11	1
26	981	1.21	1
26	1659	1.31	1
26	2338	1.41	1
26	3017	1.51	1
26	3695	1.61	1
26	4373	1.71	1
26	5052	1.81	1
26	5730	1.91	1
26	6419	2.01	1
26	7097	2.11	1
26	7775	2.21	1
26	8453	2.31	1
26	9131	2.41	1
26	9809	2.51	1
26	10487	2.61	1
26	11165	2.71	1
26	11843	2.81	1
26	12521	2.91	1
26	13207	3.01	1
26	13885	3.11	1
26	14563	3.21	1
26	15241	3.31	1
26	15919	3.41	1
26	16597	3.51	1
26	17275	3.61	1
26	17953	3.71	1
26	18631	3.81	1
26	19309	3.91	1
26	19995	4.01	1
26	20673	4.11	1
26	21351	4.21	1
26	22029	4.31	1
26	22707	4.41	1
26	23385	4.51	1
26	24063	4.61	1
26	24741	4.71	1
26	25419	4.81	1
26	26097	4.91	1
26	26784	5.01	1
26	27462	5.11	1
26	28140	5.21	1
26	28818	5.31	1
26	29496	5.41	1
26	30174	5.51	1
26	30852	5.61	1
26	31530	5.71	1
26	32208	5.81	1
26	32886	5.91	1
26	33572	6.01	1
26	34250	6.11	1
26	34928	6.21	1
26	35606	6.31	1
26	36284	6.41	1
26	36962	6.51	1
26	37640	6.61	1
26	38318	6.71	1
26	38996	6.81	1
26	39674	6.91	1
26	40360	7.01	1
26	41038	7.11	1
26	41716	7.21	1
26	42394	7.31	1
26	43072	7.41	1
26	43750	7.51	1
26	44428	7.61	1
26	45106	7.71	1
26	45784	7.81	1
26	46462	7.91	1
26	47148	8.01	1
26	47826	8.11	1
26	48504	8.21	1
38	1313	1.255176248855	0.099922843422
38	1992	1.355203092278	0.100026843423
38	2671	1.455216935699	0.100013843421
38	3349	1.55524377912	0.100026843421
38	4027	1.65521862254	0.09997484342
38	4706	1.755180465959	0.099961843419
38	5384	1.855207309378	0.100026843419
38	6063	1.955247152797	0.100039843419
38	6751	2.055234996215	0.099987843418
38	7429	2.155222839634	0.099987843419
38	8107	2.255249683052	0.100026843418
38	8785	2.355172526469	0.099922843417
38	9463	2.455173369884	0.100000843415
38	10141	2.555252213299	0.100078843415
38	10819	2.655266056714	0.100013843415
38	11497	2.755214900129	0.099948843415
38	12175	2.855189743544	0.099974843415
38	12853	2.955229586958	0.100039843414
38	13539	3.055204430373	0.099974843415
38	14217	3.155231273786	0.100026843413
38	14895	3.255219117199	0.099987843413
38	15573	3.355232960612	0.100013843413
38	16251	3.455220804024	0.099987843412
38	16929	3.555169647436	0.099948843412
38	17607	3.655170490847	0.100000843411
38	18285	3.755236334258	0.100065843411
38	18963	3.855211177668	0.09997484341
38	19641	3.955264021078	0.10005284341
38	20327	4.055264864486	0.100000843408
38	21005	4.155187707893	0.099922843407
38	21683	4.255214551301	0.100026843408
38	22361	4.355163394708	0.099948843407
38	23039	4.455229238115	0.100065843407
38	23717	4.555217081522	0.099987843407
38	24395	4.655256924928	0.100039843406
38	25073	4.755205768333	0.099948843405
38	25751	4.855219611739	0.100013843406
38	26429	4.955168455144	0.099948843405
38	27116	5.055182298545	0.100013843401
38	27794	5.155170141894	0.099987843349
38	28472	5.255261985113	0.100091843219
38	29150	5.355223828116	0.099961843003
38	29828	5.455250670813	0.100026842697
38	30506	5.555238513137	0.099987842324
38	31184	5.65518735503	0.099948841893
38	31862	5.755240196454	0.100052841424
38	32540	5.85525403739	0.100013840936
38	33218	5.95521587783	0.09996184044
38	33904	6.055203717788	0.099987839958
38	34582	6.155191557298	0.09998783951
38	35260	6.255218396418	0.10002683912
38	35938	6.355219235249	0.100000838831
38	36616	6.455194073947	0.099974838698
38	37294	6.555246912768	0.100052838821
38	37972	6.655234752132	0.099987839364
38	38650	6.755261592726	0.100026840594
38	39328	6.855249435601	0.099987842875
38	40011	6.955172282114	0.099922846513
38	40697	7.055173133662	0.100000851548
38	41375	7.155186991454	0.100013857792
38	42053	7.25525285648	0.100065865026
38	42731	7.35517572957	0.09992287309
38	43409	7.455254611447	0.100078881877
38	44087	7.555203502781	0.099948891334
38	44765	7.655204404207	0.100000901426
38	45443	7.755244316331	0.100039912124
38	46121	7.855180239751	0.09993592342
38	46794	7.95520717505	0.100026935299
38	47480	8.055182122807	0.099974947757
38	48158	8.155209083593	0.100026960786
38	48836	8.255249057978	0.100039974385
37	1313	1.255176248855	0.099922843422
37	1992	1.355203092278	0.100026843423
37	2671	1.455216935699	0.100013843421
37	3349	1.55524377912	0.100026843421
37	4027	1.65521862254	0.09997484342
37	4706	1.755180465959	0.099961843419
37	5384	1.855207309378	0.100026843419
37	6063	1.955247152797	0.100039843419
37	6751	2.055234996215	0.099987843418
37	7429	2.155222839634	0.099987843419
37	8107	2.255249683052	0.100026843418
37	8785	2.355172526469	0.099922843417
37	9463	2.455173369884	0.100000843415
37	10141	2.555252213299	0.100078843415
37	10819	2.655266056714	0.100013843415
37	11497	2.755214900129	0.099948843415
37	12175	2.855189743544	0.099974843415
37	12853	2.955229586958	0.100039843414
37	13539	3.055204430373	0.099974843415
37	14217	3.155231273786	0.100026843413
37	14895	3.255219117199	0.099987843413
37	15573	3.355232960612	0.100013843413
37	16251	3.455220804024	0.099987843412
37	16929	3.555169647436	0.099948843412
37	17607	3.655170490847	0.100000843411
37	18285	3.755236334258	0.100065843411
37	18963	3.855211177668	0.09997484341
37	19641	3.955264021078	0.10005284341
37	20327	4.055264864486	0.100000843408
37	21005	4.155187707893	0.099922843407
37	21683	4.255214551301	0.100026843408
37	22361	4.355163394708	0.099948843407
37	23039	4.455229238115	0.100065843407
37	23717	4.555217081522	0.099987843407
37	24395	4.655256924928	0.100039843406
37	25073	4.755205768333	0.099948843405
37	25751	4.855219611739	0.100013843406
37	26429	4.955168455144	0.099948843405
37	27116	5.055182298545	0.100013843401
37	27794	5.155170141894	0.099987843349
37	28472	5.255261985113	0.100091843219
37	29150	5.355223828116	0.099961843003
37	29828	5.455250670813	0.100026842697
37	30506	5.555238513137	0.099987842324
37	31184	5.65518735503	0.099948841893
37	31862	5.755240196454	0.100052841424
37	32540	5.85525403739	0.100013840936
37	33218	5.95521587783	0.09996184044
37	33904	6.055203717788	0.099987839958
37	34582	6.155191557298	0.09998783951
37	35260	6.255218396418	0.10002683912
37	35938	6.355219235249	0.100000838831
37	36616	6.455194073947	0.099974838698
37	37294	6.555246912768	0.100052838821
37	37972	6.655234752132	0.099987839364
37	38650	6.755261592726	0.100026840594
37	39328	6.855249435601	0.099987842875
37	40011	6.955172282114	0.099922846513
37	40697	7.055173133662	0.100000851548
37	41375	7.155186991454	0.100013857792
37	42053	7.25525285648	0.100065865026
37	42731	7.35517572957	0.09992287309
37	43409	7.455254611447	0.100078881877
37	44087	7.555203502781	0.099948891334
37	44765	7.655204404207	0.100000901426
37	45443	7.755244316331	0.100039912124
37	46121	7.855180239751	0.09993592342
37	46794	7.95520717505	0.100026935299
37	47480	8.055182122807	0.099974947757
37	48158	8.155209083593	0.100026960786
37	48836	8.255249057978	0.100039974385
36	1313	1.255176248855	1
36	1992	1.355203092278	1
36	2671	1.455216935699	1
36	3349	1.55524377912	1
36	4027	1.65521862254	1
36	4706	1.755180465959	1
36	5384	1.855207309378	1
36	6063	1.955247152797	1
36	6751	2.055234996215	1
36	7429	2.155222839634	1
36	8107	2.255249683052	1
36	8785	2.355172526469	1
36	9463	2.455173369884	1
36	10141	2.555252213299	1
36	10819	2.655266056714	1
36	11497	2.755214900129	1
36	12175	2.855189743544	1
36	12853	2.955229586958	1
36	13539	3.055204430373	1
36	14217	3.155231273786	1
36	14895	3.255219117199	1
36	15573	3.355232960612	1
36	16251	3.455220804024	1
36	16929	3.555169647436	1
36	17607	3.655170490847	1
36	18285	3.755236334258	1
36	18963	3.855211177668	1
36	19641	3.955264021078	1
36	20327	4.055264864486	1
36	21005	4.155187707893	1
36	21683	4.255214551301	1
36	22361	4.355163394708	1
36	23039	4.455229238115	1
36	23717	4.555217081522	1
36	24395	4.655256924928	1
36	25073	4.755205768333	1
36	25751	4.855219611739	1
36	26429	4.955168455144	1
36	27116	5.055182298545	1
36	27794	5.155170141894	1
36	28472	5.255261985113	1
36	29150	5.355223828116	1
36	29828	5.455250670813	1
36	30506	5.555238513137	1
36	31184	5.65518735503	1
36	31862	5.755240196454	1
36	32540	5.85525403739	1
36	33218	5.95521587783	1
36	33904	6.055203717788	1
36	34582	6.155191557298	1
36	35260	6.255218396418	1
36	35938	6.355219235249	1
36	36616	6.455194073947	1
36	37294	6.555246912768	1
36	37972	6.655234752132	1
36	38650	6.755261592726	1
36	39328	6.855249435601	1
36	40011	6.955172282114	1
36	40697	7.055173133662	1
36	41375	7.155186991454	1
36	42053	7.25525285648	1
36	42731	7.35517572957	1
36	43409	7.455254611447	1
36	44087	7.555203502781	1
36	44765	7.655204404207	1
36	45443	7.755244316331	1
36	46121	7.855180239751	1
36	46794	7.95520717505	1
36	47480	8.055182122807	1
36	48158	8.155209083593	1
36	48836	8.255249057978	1
35	1313	1.255176248855	1
35	1992	1.355203092278	1
35	2671	1.455216935699	1
35	3349	1.55524377912	1
35	4027	1.65521862254	1
35	4706	1.755180465959	1
35	5384	1.855207309378	1
35	6063	1.955247152797	1
35	6751	2.055234996215	1
35	7429	2.155222839634	1
35	8107	2.255249683052	1
35	8785	2.355172526469	1
35	9463	2.455173369884	1
35	10141	2.555252213299	1
35	10819	2.655266056714	1
35	11497	2.755214900129	1
35	12175	2.855189743544	1
35	12853	2.955229586958	1
35	13539	3.055204430373	1
35	14217	3.155231273786	1
35	14895	3.255219117199	1
35	15573	3.355232960612	1
35	16251	3.455220804024	1
35	16929	3.555169647436	1
35	17607	3.655170490847	1
35	18285	3.755236334258	1
35	18963	3.855211177668	1
35	19641	3.955264021078	1
35	20327	4.055264864486	1
35	21005	4.155187707893	1
35	21683	4.255214551301	1
35	22361	4.355163394708	1
35	23039	4.455229238115	1
35	23717	4.555217081522	1
35	24395	4.655256924928	1
35	25073	4.755205768333	1
35	25751	4.855219611739	1
35	26429	4.955168455144	1
35	27116	5.055182298545	1
35	27794	5.155170141894	1
35	28472	5.255261985113	1
35	29150	5.355223828116	1
35	29828	5.455250670813	1
35	30506	5.555238513137	1
35	31184	5.65518735503	1
35	31862	5.755240196454	1
35	32540	5.85525403739	1
35	33218	5.95521587783	1
35	33904	6.055203717788	1
35	34582	6.155191557298	1
35	35260	6.255218396418	1
35	35938	6.355219235249	1
35	36616	6.455194073947	1
35	37294	6.555246912768	1
35	37972	6.655234752132	1
35	38650	6.755261592726	1
35	39328	6.855249435601	1
35	40011	6.955172282114	1
35	40697	7.055173133662	1
35	41375	7.155186991454	1
35	42053	7.25525285648	1
35	42731	7.35517572957	1
35	43409	7.455254611447	1
35	44087	7.555203502781	1
35	44765	7.655204404207	1
35	45443	7.755244316331	1
35	46121	7.855180239751	1
35	46794	7.95520717505	1
35	47480	8.055182122807	1
35	48158	8.155209083593	1
35	48836	8.255249057978	1
34	6261	2	0
34	13051	3	0
34	19839	4	0
34	26628	5	0
34	33416	6	0
34	40204	7	0
34	46992	8	0
33	6261	2	0.044249
33	13051	3	0.04921
33	19839	4	0.04921
33	26628	5	0.04921
33	33416	6	0.04921
33	40204	7	0.04921
33	46992	8	0.04921
32	6261	2	1
32	13051	3	1
32	19839	4	1
32	26628	5	1
32	33416	6	1
32	40204	7	1
32	46992	8	1
54	302	1.11	0
54	982	1.21	-0.0010837
54	1660	1.31	-0.00214672
54	2339	1.41	-0.00210899
54	3018	1.51	-0.00199895
54	3696	1.61	-0.00188684
54	4374	1.71	-0.00179156
54	5053	1.81	-0.00166078
54	5731	1.91	-0.00151097
54	6420	2.01	-0.00139783
54	7098	2.11	-0.00123575
54	7776	2.21	-0.00108868
54	8454	2.31	-0.000989758
54	9132	2.41	-0.00085101
54	9810	2.51	-0.000724237
54	10488	2.61	-0.000610726
54	11166	2.71	-0.000511245
54	11844	2.81	-0.000426122
54	12522	2.91	-0.000355318
54	13208	3.01	-0.000288496
54	13886	3.11	-0.000195139
54	14564	3.21	-0.000154903
54	15242	3.31	-0.000116852
54	15920	3.41	-7.02455e-05
54	16598	3.51	-1.41506e-05
54	17276	3.61	2.25504e-06
54	17954	3.71	2.98845e-05
54	18632	3.81	3.95301e-05
54	19310	3.91	6.22894e-05
54	19996	4.01	4.90476e-05
54	20674	4.11	6.06845e-05
54	21352	4.21	6.78939e-05
54	22030	4.31	7.13348e-05
54	22708	4.41	7.1629e-05
54	23386	4.51	6.93546e-05
54	24064	4.61	6.50405e-05
54	24742	4.71	5.91649e-05
54	25420	4.81	5.21533e-05
54	26098	4.91	4.43795e-05
54	26785	5.01	3.61673e-05
54	27463	5.11	-4.00459
54	28141	5.21	-8.04176
54	28819	5.31	-8.08929
54	29497	5.41	-8.12824
54	30175	5.51	-8.15985
54	30853	5.61	-8.18528
54	31531	5.71	-8.20546
54	32209	5.81	-8.2212
54	32887	5.91	-8.23317
54	33573	6.01	-8.24196
54	34251	6.11	-8.24809
54	34929	6.21	-8.25194
54	35607	6.31	-8.25392
54	36285	6.41	-8.25435
54	36963	6.51	-8.25345
54	37641	6.61	-8.25145
54	38319	6.71	-8.24859
54	38997	6.81	-8.24498
54	39675	6.91	-8.24072
54	40361	7.01	-8.23605
54	41039	7.11	-8.23096
54	41717	7.21	-8.22562
54	42395	7.31	-8.22002
54	43073	7.41	-8.21429
54	43751	7.51	-8.20843
54	44429	7.61	-8.20249
54	45107	7.71	-8.19655
54	45785	7.81	-8.19059
54	46463	7.91	-8.18463
54	47149	8.01	-8.17874
54	47827	8.11	-8.1729
54	48505	8.21	-8.16713
53	302	1.11	0
53	982	1.21	-0.000102108
53	1660	1.31	-0.000435534
53	2339	1.41	-0.000739604
53	3018	1.51	-0.000972324
53	3696	1.61	-0.00114363
53	4374	1.71	-0.00126629
53	5053	1.81	-0.00134531
53	5731	1.91	-0.0013834
53	6420	2.01	-0.00139361
53	7098	2.11	-0.0013744
53	7776	2.21	-0.00133105
53	8454	2.31	-0.00127644
53	9132	2.41	-0.00120781
53	9810	2.51	-0.00112807
53	10488	2.61	-0.00104154
53	11166	2.71	-0.000951945
53	11844	2.81	-0.000862388
53	12522	2.91	-0.000775446
53	13208	3.01	-0.000692238
53	13886	3.11	-0.000607304
53	14564	3.21	-0.000528914
53	15242	3.31	-0.000456951
53	15920	3.41	-0.000390138
53	16598	3.51	-0.000325369
53	17276	3.61	-0.000267798
53	17954	3.71	-0.000215301
53	18632	3.81	-0.000170286
53	19310	3.91	-0.000129579
53	19996	4.01	-9.72666e-05
53	20674	4.11	-6.94065e-05
53	21352	4.21	-4.50354e-05
53	22030	4.31	-2.42373e-05
53	22708	4.41	-6.96729e-06
53	23386	4.51	6.91755e-06
53	24064	4.61	1.76322e-05
53	24742	4.71	2.54414e-05
53	25420	4.81	3.06416e-05
53	26098	4.91	3.35459e-05
53	26785	5.01	3.44717e-05
53	27463	5.11	-0.377483
53	28141	5.21	-1.62004
53	28819	5.31	-2.78019
53	29497	5.41	-3.73929
53	30175	5.51	-4.5321
53	30853	5.61	-5.18732
53	31531	5.71	-5.72869
53	32209	5.81	-6.17583
53	32887	5.91	-6.54496
53	33573	6.01	-6.8495
53	34251	6.11	-7.10056
53	34929	6.21	-7.30731
53	35607	6.31	-7.47735
53	36285	6.41	-7.617
53	36963	6.51	-7.73146
53	37641	6.61	-7.82505
53	38319	6.71	-7.90136
53	38997	6.81	-7.96334
53	39675	6.91	-8.01345
53	40361	7.01	-8.05374
53	41039	7.11	-8.0859
53	41717	7.21	-8.11133
53	42395	7.31	-8.1312
53	43073	7.41	-8.14647
53	43751	7.51	-8.15796
53	44429	7.61	-8.16631
53	45107	7.71	-8.1721
53	45785	7.81	-8.17578
53	46463	7.91	-8.17773
53	47149	8.01	-8.17826
53	47827	8.11	-8.17764
53	48505	8.21	-8.1761
52	302	1.11	242.45
52	982	1.21	242.45
52	1660	1.31	242.45
52	2339	1.41	242.45
52	3018	1.51	242.45
52	3696	1.61	242.45
52	4374	1.71	242.45
52	5053	1.81	242.45
52	5731	1.91	242.45
52	6420	2.01	242.45
52	7098	2.11	242.45
52	7776	2.21	242.45
52	8454	2.31	242.45
52	9132	2.41	242.45
52	9810	2.51	242.45
52	10488	2.61	242.45
52	11166	2.71	242.45
52	11844	2.81	242.45
52	12522	2.91	242.45
52	13208	3.01	242.45
52	13886	3.11	242.45
52	14564	3.21	242.45
52	15242	3.31	242.45
52	15920	3.41	242.45
52	16598	3.51	242.45
52	17276	3.61	242.45
52	17954	3.71	242.45
52	18632	3.81	242.45
52	19310	3.91	242.45
52	19996	4.01	242.45
52	20674	4.11	242.45
52	21352	4.21	242.45
52	22030	4.31	242.45
52	22708	4.41	242.45
52	23386	4.51	242.45
52	24064	4.61	242.45
52	24742	4.71	242.45
52	25420	4.81	242.45
52	26098	4.91	242.45
52	26785	5.01	242.45
52	27463	5.11	242.45
52	28141	5.21	242.45
52	28819	5.31	242.45
52	29497	5.41	242.45
52	30175	5.51	242.45
52	30853	5.61	242.45
52	31531	5.71	242.45
52	32209	5.81	242.45
52	32887	5.91	242.45
52	33573	6.01	242.45
52	34251	6.11	242.45
52	34929	6.21	242.45
52	35607	6.31	242.45
52	36285	6.41	242.45
52	36963	6.51	242.45
52	37641	6.61	242.45
52	38319	6.71	242.45
52	38997	6.81	242.45
52	39675	6.91	242.45
52	40361	7.01	242.45
52	41039	7.11	242.45
52	41717	7.21	242.45
52	42395	7.31	242.45
52	43073	7.41	242.45
52	43751	7.51	242.45
52	44429	7.61	242.45
52	45107	7.71	242.45
52	45785	7.81	242.45
52	46463	7.91	242.45
52	47149	8.01	242.45
52	47827	8.11	242.45
52	48505	8.21	242.45
51	302	1.11	55.9402
51	982	1.21	58.7182
51	1660	1.31	61.4962
51	2339	1.41	64.2742
51	3018	1.51	67.0522
51	3696	1.61	69.8302
51	4374	1.71	72.6081
51	5053	1.81	75.3861
51	5731	1.91	78.164
51	6420	2.01	80.9419
51	7098	2.11	83.7199
51	7776	2.21	86.4977
51	8454	2.31	89.2756
51	9132	2.41	92.0535
51	9810	2.51	94.8314
51	10488	2.61	97.6092
51	11166	2.71	100.387
51	11844	2.81	103.165
51	12522	2.91	105.943
51	13208	3.01	108.721
51	13886	3.11	111.498
51	14564	3.21	114.276
51	15242	3.31	117.054
51	15920	3.41	119.832
51	16598	3.51	122.609
51	17276	3.61	125.387
51	17954	3.71	128.165
51	18632	3.81	130.943
51	19310	3.91	133.721
51	19996	4.01	136.498
51	20674	4.11	139.276
51	21352	4.21	142.054
51	22030	4.31	144.832
51	22708	4.41	147.609
51	23386	4.51	150.387
51	24064	4.61	153.165
51	24742	4.71	155.943
51	25420	4.81	158.721
51	26098	4.91	161.498
51	26785	5.01	164.276
51	27463	5.11	167.054
51	28141	5.21	169.826
51	28819	5.31	172.582
51	29497	5.41	175.31
51	30175	5.51	178
51	30853	5.61	180.645
51	31531	5.71	183.237
51	32209	5.81	185.773
51	32887	5.91	188.246
51	33573	6.01	190.653
51	34251	6.11	192.992
51	34929	6.21	195.26
51	35607	6.31	197.455
51	36285	6.41	199.575
51	36963	6.51	201.619
51	37641	6.61	203.585
51	38319	6.71	205.473
51	38997	6.81	207.283
51	39675	6.91	209.012
51	40361	7.01	210.661
51	41039	7.11	212.23
51	41717	7.21	213.718
51	42395	7.31	215.125
51	43073	7.41	216.45
51	43751	7.51	217.694
51	44429	7.61	218.857
51	45107	7.71	219.937
51	45785	7.81	220.936
51	46463	7.91	221.854
51	47149	8.01	222.689
51	47827	8.11	223.443
51	48505	8.21	224.115
50	302	1.11	27.78
50	982	1.21	27.78
50	1660	1.31	27.78
50	2339	1.41	27.7799
50	3018	1.51	27.7798
50	3696	1.61	27.7797
50	4374	1.71	27.7796
50	5053	1.81	27.7795
50	5731	1.91	27.7793
50	6420	2.01	27.7792
50	7098	2.11	27.779
50	7776	2.21	27.7789
50	8454	2.31	27.7788
50	9132	2.41	27.7787
50	9810	2.51	27.7785
50	10488	2.61	27.7784
50	11166	2.71	27.7783
50	11844	2.81	27.7782
50	12522	2.91	27.7782
50	13208	3.01	27.7781
50	13886	3.11	27.778
50	14564	3.21	27.778
50	15242	3.31	27.7779
50	15920	3.41	27.7779
50	16598	3.51	27.7778
50	17276	3.61	27.7778
50	17954	3.71	27.7778
50	18632	3.81	27.7778
50	19310	3.91	27.7778
50	19996	4.01	27.7777
50	20674	4.11	27.7777
50	21352	4.21	27.7777
50	22030	4.31	27.7777
50	22708	4.41	27.7777
50	23386	4.51	27.7777
50	24064	4.61	27.7777
50	24742	4.71	27.7777
50	25420	4.81	27.7777
50	26098	4.91	27.7777
50	26785	5.01	27.7777
50	27463	5.11	27.7663
50	28141	5.21	27.6644
50	28819	5.31	27.4368
50	29497	5.41	27.1045
50	30175	5.51	26.6858
50	30853	5.61	26.1955
50	31531	5.71	25.6461
50	32209	5.81	25.048
50	32887	5.91	24.4095
50	33573	6.01	23.7378
50	34251	6.11	23.0386
50	34929	6.21	22.3169
50	35607	6.31	21.5765
50	36285	6.41	20.8209
50	36963	6.51	20.0527
50	37641	6.61	19.2742
50	38319	6.71	18.4874
50	38997	6.81	17.6938
50	39675	6.91	16.8946
50	40361	7.01	16.091
50	41039	7.11	15.2837
50	41717	7.21	14.4737
50	42395	7.31	13.6614
50	43073	7.41	12.8475
50	43751	7.51	12.0321
50	44429	7.61	11.2159
50	45107	7.71	10.3989
50	45785	7.81	9.58147
50	46463	7.91	8.76377
50	47149	8.01	7.94596
50	47827	8.11	7.12816
50	48505	8.21	6.31047
48	302	1.11	0
48	982	1.21	-3.11046e-06
48	1660	1.31	-1.60333e-05
48	2339	1.41	-2.6551e-05
48	3018	1.51	-3.46454e-05
48	3696	1.61	-4.07777e-05
48	4374	1.71	-4.50243e-05
48	5053	1.81	-4.76084e-05
48	5731	1.91	-4.87738e-05
48	6420	2.01	-4.8937e-05
48	7098	2.11	-4.7919e-05
48	7776	2.21	-4.61824e-05
48	8454	2.31	-4.41075e-05
48	9132	2.41	-4.14367e-05
48	9810	2.51	-3.84454e-05
48	10488	2.61	-3.53514e-05
48	11166	2.71	-3.23091e-05
48	11844	2.81	-2.94161e-05
48	12522	2.91	-2.67197e-05
48	13208	3.01	-2.41384e-05
48	13886	3.11	-2.15918e-05
48	14564	3.21	-1.94626e-05
48	15242	3.31	-1.73529e-05
48	15920	3.41	-1.54505e-05
48	16598	3.51	-1.37735e-05
48	17276	3.61	-1.2277e-05
48	17954	3.71	-1.08562e-05
48	18632	3.81	-9.90707e-06
48	19310	3.91	-9.29382e-06
48	19996	4.01	-8.84794e-06
48	20674	4.11	-8.28639e-06
48	21352	4.21	-7.68827e-06
48	22030	4.31	-7.10942e-06
48	22708	4.41	-6.583e-06
48	23386	4.51	-6.12511e-06
48	24064	4.61	-5.73935e-06
48	24742	4.71	-5.42062e-06
48	25420	4.81	-5.15815e-06
48	26098	4.91	-4.93794e-06
48	26785	5.01	-4.74456e-06
48	27463	5.11	-0.0115098
48	28141	5.21	-0.0593227
48	28819	5.31	-0.0992771
48	29497	5.41	-0.131855
48	30175	5.51	-0.158151
48	30853	5.61	-0.179102
48	31531	5.71	-0.195509
48	32209	5.81	-0.208058
48	32887	5.91	-0.217335
48	33573	6.01	-0.223839
48	34251	6.11	-0.227998
48	34929	6.21	-0.230176
48	35607	6.31	-0.230686
48	36285	6.41	-0.229793
48	36963	6.51	-0.227724
48	37641	6.61	-0.224671
48	38319	6.71	-0.220799
48	38997	6.81	-0.21625
48	39675	6.91	-0.211142
48	40361	7.01	-0.205578
48	41039	7.11	-0.199645
48	41717	7.21	-0.193419
48	42395	7.31	-0.186961
48	43073	7.41	-0.180327
48	43751	7.51	-0.173562
48	44429	7.61	-0.166706
48	45107	7.71	-0.159792
48	45785	7.81	-0.15285
48	46463	7.91	-0.145903
48	47149	8.01	-0.138973
48	47827	8.11	-0.132077
48	48505	8.21	-0.12523
47	302	1.11	5
47	982	1.21	5
47	1660	1.31	5
47	2339	1.41	5
47	3018	1.51	4.99999
47	3696	1.61	4.99999
47	4374	1.71	4.99999
47	5053	1.81	4.99998
47	5731	1.91	4.99998
47	6420	2.01	4.99997
47	7098	2.11	4.99997
47	7776	2.21	4.99996
47	8454	2.31	4.99996
47	9132	2.41	4.99995
47	9810	2.51	4.99995
47	10488	2.61	4.99995
47	11166	2.71	4.99994
47	11844	2.81	4.99994
47	12522	2.91	4.99994
47	13208	3.01	4.99993
47	13886	3.11	4.99993
47	14564	3.21	4.99993
47	15242	3.31	4.99993
47	15920	3.41	4.99993
47	16598	3.51	4.99992
47	17276	3.61	4.99992
47	17954	3.71	4.99992
47	18632	3.81	4.99992
47	19310	3.91	4.99992
47	19996	4.01	4.99992
47	20674	4.11	4.99992
47	21352	4.21	4.99992
47	22030	4.31	4.99992
47	22708	4.41	4.99992
47	23386	4.51	4.99992
47	24064	4.61	4.99991
47	24742	4.71	4.99991
47	25420	4.81	4.99991
47	26098	4.91	4.99991
47	26785	5.01	4.99991
47	27463	5.11	4.9997
47	28141	5.21	4.99612
47	28819	5.31	4.98812
47	29497	5.41	4.97651
47	30175	5.51	4.96196
47	30853	5.61	4.94505
47	31531	5.71	4.92629
47	32209	5.81	4.90608
47	32887	5.91	4.88479
47	33573	6.01	4.86271
47	34251	6.11	4.8401
47	34929	6.21	4.81717
47	35607	6.31	4.79412
47	36285	6.41	4.77108
47	36963	6.51	4.7482
47	37641	6.61	4.72557
47	38319	6.71	4.70329
47	38997	6.81	4.68143
47	39675	6.91	4.66006
47	40361	7.01	4.63922
47	41039	7.11	4.61896
47	41717	7.21	4.5993
47	42395	7.31	4.58028
47	43073	7.41	4.56191
47	43751	7.51	4.54422
47	44429	7.61	4.52721
47	45107	7.71	4.51088
47	45785	7.81	4.49525
47	46463	7.91	4.48031
47	47149	8.01	4.46607
47	47827	8.11	4.45251
47	48505	8.21	4.43965
49	302	1.11	2
49	982	1.21	2
49	1660	1.31	2
49	2339	1.41	2
49	3018	1.51	2
49	3696	1.61	2
49	4374	1.71	2
49	5053	1.81	2
49	5731	1.91	2
49	6420	2.01	2
49	7098	2.11	2
49	7776	2.21	2
49	8454	2.31	2
49	9132	2.41	2
49	9810	2.51	2
49	10488	2.61	2
49	11166	2.71	2
49	11844	2.81	2
49	12522	2.91	2
49	13208	3.01	2
49	13886	3.11	2
49	14564	3.21	2
49	15242	3.31	2
49	15920	3.41	2
49	16598	3.51	2
49	17276	3.61	2
49	17954	3.71	2
49	18632	3.81	2
49	19310	3.91	2
49	19996	4.01	2
49	20674	4.11	2
49	21352	4.21	2
49	22030	4.31	2
49	22708	4.41	2
49	23386	4.51	2
49	24064	4.61	2
49	24742	4.71	2
49	25420	4.81	2
49	26098	4.91	2
49	26785	5.01	2
49	27463	5.11	2
49	28141	5.21	2
49	28819	5.31	2
49	29497	5.41	2
49	30175	5.51	2
49	30853	5.61	2
49	31531	5.71	2
49	32209	5.81	2
49	32887	5.91	2
49	33573	6.01	2
49	34251	6.11	2
49	34929	6.21	2
49	35607	6.31	2
49	36285	6.41	2
49	36963	6.51	2
49	37641	6.61	2
49	38319	6.71	2
49	38997	6.81	2
49	39675	6.91	2
49	40361	7.01	2
49	41039	7.11	2
49	41717	7.21	2
49	42395	7.31	2
49	43073	7.41	2
49	43751	7.51	2
49	44429	7.61	2
49	45107	7.71	2
49	45785	7.81	2
49	46463	7.91	2
49	47149	8.01	2
49	47827	8.11	2
49	48505	8.21	2
61	1106	1.229823915786	0.100000843423
61	1785	1.329824759208	0.100000843422
61	2464	1.429825602631	0.100000843423
61	3142	1.529826446052	0.100000843421
61	3820	1.629827289473	0.100000843421
61	4498	1.729828132893	0.10000084342
61	5177	1.829828976312	0.100000843419
61	5855	1.929829819731	0.100000843419
61	6544	2.02983066315	0.100000843419
61	7222	2.129831506568	0.100000843418
61	7900	2.229832349987	0.100000843419
61	8578	2.329820193404	0.099987843417
61	9256	2.429821036821	0.100000843417
61	9934	2.529821880236	0.100000843415
61	10612	2.629822723651	0.100000843415
61	11290	2.729823567066	0.100000843415
61	11968	2.829824410481	0.100000843415
61	12646	2.929825253896	0.100000843415
61	13332	3.02982609731	0.100000843414
61	14010	3.129826940724	0.100000843414
61	14688	3.229827784137	0.100000843413
61	15366	3.32982862755	0.100000843413
61	16044	3.429829470963	0.100000843413
61	16722	3.529830314375	0.100000843412
61	17400	3.629831157787	0.100000843412
61	18078	3.729832001198	0.100000843411
61	18756	3.829832844608	0.10000084341
61	19434	3.929820688018	0.09998784341
61	20120	4.029821531426	0.100000843408
61	20798	4.129822374834	0.100000843408
61	21476	4.229823218241	0.100000843407
61	22154	4.329824061649	0.100000843408
61	22832	4.429824905057	0.100000843408
61	23510	4.529825748464	0.100000843407
61	24188	4.62982659187	0.100000843406
61	24866	4.729827435276	0.100000843406
61	25544	4.829828278681	0.100000843405
61	26222	4.929829122087	0.100000843406
61	26909	5.029829965492	0.100000843405
61	27587	5.129830808892	0.1000008434
61	28265	5.229831652214	0.100000843322
61	28943	5.329832495363	0.100000843149
61	29621	5.429820338242	0.099987842879
61	30299	5.529821180772	0.10000084253
61	30977	5.629822022885	0.100000842113
61	31655	5.729822864535	0.10000084165
61	32333	5.829823705687	0.100000841152
61	33011	5.929824546325	0.100000840638
61	33697	6.02982538645	0.100000840125
61	34375	6.129826226076	0.100000839626
61	35053	6.229827065241	0.100000839165
61	35731	6.329827904006	0.100000838765
61	36409	6.429828742471	0.100000838465
61	37087	6.529829580798	0.100000838327
61	37765	6.629830419241	0.100000838443
61	38443	6.729831258225	0.100000838984
61	39121	6.829832098435	0.10000084021
61	39799	6.929832940925	0.10000084249
61	40485	7.029820787051	0.099987846126
61	41163	7.129821638211	0.10000085116
61	41841	7.229822495617	0.100000857406
61	42519	7.329823360258	0.100000864641
61	43197	7.429824232963	0.100000872705
61	43870	7.529825114458	0.100000881495
61	44548	7.629826005414	0.100000890956
61	45226	7.729826906463	0.100000901049
61	45904	7.829827818214	0.100000911751
61	46582	7.929828741264	0.10000092305
61	47268	8.029829676199	0.100000934935
61	47946	8.129830623593	0.100000947394
61	48624	8.229831584021	0.100000960428
60	1324	1.255176278876	0.099922843422
60	2003	1.355203122298	0.100026843422
60	2682	1.455216965719	0.100013843421
60	3360	1.55524380914	0.100026843421
60	4038	1.65521865256	0.09997484342
60	4717	1.75518049598	0.09996184342
60	5395	1.855207339399	0.100026843419
60	6074	1.955247182818	0.100039843419
60	6762	2.055235026236	0.099987843418
60	7440	2.155222869655	0.099987843419
60	8118	2.255249713073	0.100026843418
60	8796	2.35517255649	0.099922843417
60	9474	2.455173399905	0.100000843415
60	10152	2.55525224332	0.100078843415
60	10830	2.655266086734	0.100013843414
60	11508	2.755214930149	0.099948843415
60	12186	2.855189773564	0.099974843415
60	12864	2.955229616978	0.100039843414
60	13550	3.055204460393	0.099974843415
60	14228	3.155231303806	0.100026843413
60	14906	3.255219147219	0.099987843413
60	15584	3.355232990632	0.100013843413
60	16262	3.455220834044	0.099987843412
60	16940	3.555169677456	0.099948843412
60	17618	3.655170520867	0.100000843411
60	18296	3.755236364278	0.100065843411
60	18974	3.855211207688	0.09997484341
60	19652	3.955264051098	0.10005284341
60	20338	4.055264894506	0.100000843408
60	21016	4.155187737913	0.099922843407
60	21694	4.255214581321	0.100026843408
60	22372	4.355163424729	0.099948843408
60	23050	4.455229268136	0.100065843407
60	23728	4.555217111543	0.099987843407
60	24406	4.655256954949	0.100039843406
60	25084	4.755205798354	0.099948843405
60	25762	4.85521964176	0.100013843406
60	26440	4.955168485165	0.099948843405
60	27127	5.055182328566	0.100013843401
60	27805	5.15517017191	0.099987843344
60	28483	5.255262015109	0.100091843199
60	29161	5.355223858079	0.09996184297
60	29839	5.455250700733	0.100026842654
60	30517	5.555238543003	0.09998784227
60	31195	5.655187384837	0.099948841834
60	31873	5.755240226196	0.100052841359
60	32551	5.855254067062	0.100013840866
60	33229	5.95521590743	0.099961840368
60	33915	6.055203747314	0.099987839884
60	34593	6.155191586748	0.099987839434
60	35271	6.255218425791	0.100026839043
60	35949	6.355219264544	0.100000838753
60	36627	6.455194103166	0.099974838622
60	37305	6.555246941911	0.100052838745
60	37983	6.6552347812	0.099987839289
60	38661	6.755261621721	0.100026840521
60	39339	6.855249464524	0.099987842803
60	40017	6.955172310966	0.099922846442
60	40703	7.055173162445	0.100000851479
60	41381	7.155187020171	0.100013857726
60	42059	7.255252885132	0.100065864961
60	42737	7.355175758159	0.099922873027
60	43415	7.455254639976	0.100078881817
60	44093	7.555203531253	0.099948891277
60	44771	7.655204432623	0.10000090137
60	45449	7.755244344694	0.100039912071
60	46127	7.855180268063	0.099935923369
60	46805	7.955207203314	0.100026935251
60	47491	8.055182151023	0.099974947709
60	48169	8.155209111766	0.100026960743
60	48847	8.255249086109	0.100039974343
59	1106	1.229823915786	2
59	1785	1.329824759208	2
59	2464	1.429825602631	2
59	3142	1.529826446052	2
59	3820	1.629827289473	2
59	4498	1.729828132893	2
59	5177	1.829828976312	2
59	5855	1.929829819731	2
59	6544	2.02983066315	2
59	7222	2.129831506568	2
59	7900	2.229832349987	2
59	8578	2.329820193404	2
59	9256	2.429821036821	2
59	9934	2.529821880236	2
59	10612	2.629822723651	2
59	11290	2.729823567066	2
59	11968	2.829824410481	2
59	12646	2.929825253896	2
59	13332	3.02982609731	2
59	14010	3.129826940724	2
59	14688	3.229827784137	2
59	15366	3.32982862755	2
59	16044	3.429829470963	2
59	16722	3.529830314375	2
59	17400	3.629831157787	2
59	18078	3.729832001198	2
59	18756	3.829832844608	2
59	19434	3.929820688018	2
59	20120	4.029821531426	2
59	20798	4.129822374834	2
59	21476	4.229823218241	2
59	22154	4.329824061649	2
59	22832	4.429824905057	2
59	23510	4.529825748464	2
59	24188	4.62982659187	2
59	24866	4.729827435276	2
59	25544	4.829828278681	2
59	26222	4.929829122087	2
59	26909	5.029829965492	2
59	27587	5.129830808892	2
59	28265	5.229831652214	2
59	28943	5.329832495363	2
59	29621	5.429820338242	2
59	30299	5.529821180772	2
59	30977	5.629822022885	2
59	31655	5.729822864535	2
59	32333	5.829823705687	2
59	33011	5.929824546325	2
59	33697	6.02982538645	2
59	34375	6.129826226076	2
59	35053	6.229827065241	2
59	35731	6.329827904006	2
59	36409	6.429828742471	2
59	37087	6.529829580798	2
59	37765	6.629830419241	2
59	38443	6.729831258225	2
59	39121	6.829832098435	2
59	39799	6.929832940925	2
59	40485	7.029820787051	2
59	41163	7.129821638211	2
59	41841	7.229822495617	2
59	42519	7.329823360258	2
59	43197	7.429824232963	2
59	43870	7.529825114458	2
59	44548	7.629826005414	2
59	45226	7.729826906463	2
59	45904	7.829827818214	2
59	46582	7.929828741264	2
59	47268	8.029829676199	2
59	47946	8.129830623593	2
59	48624	8.229831584021	2
58	1324	1.255176278876	2
58	2003	1.355203122298	2
58	2682	1.455216965719	2
58	3360	1.55524380914	2
58	4038	1.65521865256	2
58	4717	1.75518049598	2
58	5395	1.855207339399	2
58	6074	1.955247182818	2
58	6762	2.055235026236	2
58	7440	2.155222869655	2
58	8118	2.255249713073	2
58	8796	2.35517255649	2
58	9474	2.455173399905	2
58	10152	2.55525224332	2
58	10830	2.655266086734	2
58	11508	2.755214930149	2
58	12186	2.855189773564	2
58	12864	2.955229616978	2
58	13550	3.055204460393	2
58	14228	3.155231303806	2
58	14906	3.255219147219	2
58	15584	3.355232990632	2
58	16262	3.455220834044	2
58	16940	3.555169677456	2
58	17618	3.655170520867	2
58	18296	3.755236364278	2
58	18974	3.855211207688	2
58	19652	3.955264051098	2
58	20338	4.055264894506	2
58	21016	4.155187737913	2
58	21694	4.255214581321	2
58	22372	4.355163424729	2
58	23050	4.455229268136	2
58	23728	4.555217111543	2
58	24406	4.655256954949	2
58	25084	4.755205798354	2
58	25762	4.85521964176	2
58	26440	4.955168485165	2
58	27127	5.055182328566	2
58	27805	5.15517017191	2
58	28483	5.255262015109	2
58	29161	5.355223858079	2
58	29839	5.455250700733	2
58	30517	5.555238543003	2
58	31195	5.655187384837	2
58	31873	5.755240226196	2
58	32551	5.855254067062	2
58	33229	5.95521590743	2
58	33915	6.055203747314	2
58	34593	6.155191586748	2
58	35271	6.255218425791	2
58	35949	6.355219264544	2
58	36627	6.455194103166	2
58	37305	6.555246941911	2
58	37983	6.6552347812	2
58	38661	6.755261621721	2
58	39339	6.855249464524	2
58	40017	6.955172310966	2
58	40703	7.055173162445	2
58	41381	7.155187020171	2
58	42059	7.255252885132	2
58	42737	7.355175758159	2
58	43415	7.455254639976	2
58	44093	7.555203531253	2
58	44771	7.655204432623	2
58	45449	7.755244344694	2
58	46127	7.855180268063	2
58	46805	7.955207203314	2
58	47491	8.055182151023	2
58	48169	8.155209111766	2
58	48847	8.255249086109	2
57	6262	2	0
57	13052	3	0
57	19840	4	0
57	26629	5	0
57	33417	6	0
57	40205	7	0
57	46993	8	0
56	6262	2	0.044249
56	13052	3	0.04921
56	19840	4	0.04921
56	26629	5	0.04921
56	33417	6	0.04921
56	40205	7	0.04921
56	46993	8	0.04921
55	6262	2	2
55	13052	3	2
55	19840	4	2
55	26629	5	2
55	33417	6	2
55	40205	7	2
55	46993	8	2
77	303	1.11	0
77	983	1.21	-0.0010837
77	1661	1.31	-0.00159829
77	2340	1.41	-0.00208405
77	3019	1.51	-0.00202689
77	3697	1.61	-0.00191566
77	4375	1.71	-0.00180058
77	5054	1.81	-0.00167545
77	5732	1.91	-0.00156764
77	6421	2.01	-0.00140832
77	7099	2.11	-0.00126818
77	7777	2.21	-0.0011463
77	8455	2.31	-0.000996315
77	9133	2.41	-0.000876369
77	9811	2.51	-0.000773132
77	10489	2.61	-0.00065313
77	11167	2.71	-0.000547506
77	11845	2.81	-0.000456872
77	12523	2.91	-0.000381393
77	13209	3.01	-0.000280949
77	13887	3.11	-0.000230191
77	14565	3.21	-0.000163263
77	15243	3.31	-0.000109864
77	15921	3.41	-8.39639e-05
77	16599	3.51	-2.96202e-05
77	17277	3.61	-5.83572e-06
77	17955	3.71	1.31974e-05
77	18633	3.81	4.35293e-05
77	19311	3.91	6.09207e-05
77	19997	4.01	8.14612e-05
77	20675	4.11	5.09868e-05
77	21353	4.21	6.06345e-05
77	22031	4.31	6.60859e-05
77	22709	4.41	6.79811e-05
77	23387	4.51	6.69282e-05
77	24065	4.61	6.34941e-05
77	24743	4.71	5.81996e-05
77	25421	4.81	5.15149e-05
77	26099	4.91	4.38587e-05
77	26786	5.01	3.55979e-05
77	27464	5.11	-4.00458
77	28142	5.21	-6.01338
77	28820	5.31	-8.05874
77	29498	5.41	-8.10683
77	30176	5.51	-8.14629
77	30854	5.61	-8.17839
77	31532	5.71	-8.20428
77	32210	5.81	-8.22491
77	32888	5.91	-8.24113
77	33574	6.01	-8.25359
77	34252	6.11	-8.26288
77	34930	6.21	-8.26952
77	35608	6.31	-8.27392
77	36286	6.41	-8.27644
77	36964	6.51	-8.27741
77	37642	6.61	-8.27705
77	38320	6.71	-8.27562
77	38998	6.81	-8.27328
77	39676	6.91	-8.27019
77	40362	7.01	-8.26648
77	41040	7.11	-8.26229
77	41718	7.21	-8.25768
77	42396	7.31	-8.2528
77	43074	7.41	-8.24765
77	43752	7.51	-8.24231
77	44430	7.61	-8.23683
77	45108	7.71	-8.23126
77	45786	7.81	-8.22562
77	46464	7.91	-8.21995
77	47150	8.01	-8.21426
77	47828	8.11	-8.20859
77	48506	8.21	-8.20295
76	303	1.11	0
76	983	1.21	-0.000102108
76	1661	1.31	-0.000364416
76	2340	1.41	-0.000668348
76	3019	1.51	-0.000917148
76	3697	1.61	-0.00110276
76	4375	1.71	-0.00123413
76	5054	1.81	-0.00132051
76	5732	1.91	-0.00137112
76	6421	2.01	-0.00138552
76	7099	2.11	-0.00137171
76	7777	2.21	-0.00133728
76	8455	2.31	-0.00128299
76	9133	2.41	-0.00121608
76	9811	2.51	-0.00114204
76	10489	2.61	-0.00105965
76	11167	2.71	-0.000972483
76	11845	2.81	-0.000884077
76	12523	2.91	-0.00079738
76	13209	3.01	-0.000708952
76	13887	3.11	-0.000625437
76	14565	3.21	-0.000545541
76	15243	3.31	-0.000469187
76	15921	3.41	-0.000401859
76	16599	3.51	-0.000337073
76	17277	3.61	-0.000278927
76	17955	3.71	-0.000226835
76	18633	3.81	-0.000179347
76	19311	3.91	-0.000136891
76	19997	4.01	-9.82802e-05
76	20675	4.11	-7.11237e-05
76	21353	4.21	-4.76758e-05
76	22031	4.31	-2.73123e-05
76	22709	4.41	-1.01429e-05
76	23387	4.51	3.85347e-06
76	24065	4.61	1.47977e-05
76	24743	4.71	2.28847e-05
76	25421	4.81	2.83608e-05
76	26099	4.91	3.15056e-05
76	26786	5.01	3.26162e-05
76	27464	5.11	-0.377484
76	28142	5.21	-1.35705
76	28820	5.31	-2.52721
76	29498	5.41	-3.5286
76	30176	5.51	-4.35737
76	30854	5.61	-5.04318
76	31532	5.71	-5.61058
76	32210	5.81	-6.07987
76	32888	5.91	-6.46786
76	33574	6.01	-6.78848
76	34252	6.11	-7.05325
76	34930	6.21	-7.27171
76	35608	6.31	-7.45177
76	36286	6.41	-7.59998
76	36964	6.51	-7.72177
76	37642	6.61	-7.82166
76	38320	6.71	-7.90337
76	38998	6.81	-7.97
76	39676	6.91	-8.02413
76	40362	7.01	-8.06788
76	41040	7.11	-8.10304
76	41718	7.21	-8.13106
76	42396	7.31	-8.15317
76	43074	7.41	-8.1704
76	43752	7.51	-8.18357
76	44430	7.61	-8.1934
76	45108	7.71	-8.20046
76	45786	7.81	-8.20524
76	46464	7.91	-8.20815
76	47150	8.01	-8.20951
76	47828	8.11	-8.2096
76	48506	8.21	-8.20867
75	303	1.11	242.45
75	983	1.21	242.45
75	1661	1.31	242.45
75	2340	1.41	242.45
75	3019	1.51	242.45
75	3697	1.61	242.45
75	4375	1.71	242.45
75	5054	1.81	242.45
75	5732	1.91	242.45
75	6421	2.01	242.45
75	7099	2.11	242.45
75	7777	2.21	242.45
75	8455	2.31	242.45
75	9133	2.41	242.45
75	9811	2.51	242.45
75	10489	2.61	242.45
75	11167	2.71	242.45
75	11845	2.81	242.45
75	12523	2.91	242.45
75	13209	3.01	242.45
75	13887	3.11	242.45
75	14565	3.21	242.45
75	15243	3.31	242.45
75	15921	3.41	242.45
75	16599	3.51	242.45
75	17277	3.61	242.45
75	17955	3.71	242.45
75	18633	3.81	242.45
75	19311	3.91	242.45
75	19997	4.01	242.45
75	20675	4.11	242.45
75	21353	4.21	242.45
75	22031	4.31	242.45
75	22709	4.41	242.45
75	23387	4.51	242.45
75	24065	4.61	242.45
75	24743	4.71	242.45
75	25421	4.81	242.45
75	26099	4.91	242.45
75	26786	5.01	242.45
75	27464	5.11	242.45
75	28142	5.21	242.45
75	28820	5.31	242.45
75	29498	5.41	242.45
75	30176	5.51	242.45
75	30854	5.61	242.45
75	31532	5.71	242.45
75	32210	5.81	242.45
75	32888	5.91	242.45
75	33574	6.01	242.45
75	34252	6.11	242.45
75	34930	6.21	242.45
75	35608	6.31	242.45
75	36286	6.41	242.45
75	36964	6.51	242.45
75	37642	6.61	242.45
75	38320	6.71	242.45
75	38998	6.81	242.45
75	39676	6.91	242.45
75	40362	7.01	242.45
75	41040	7.11	242.45
75	41718	7.21	242.45
75	42396	7.31	242.45
75	43074	7.41	242.45
75	43752	7.51	242.45
75	44430	7.61	242.45
75	45108	7.71	242.45
75	45786	7.81	242.45
75	46464	7.91	242.45
75	47150	8.01	242.45
75	47828	8.11	242.45
75	48506	8.21	242.45
74	303	1.11	46.9402
74	983	1.21	49.7182
74	1661	1.31	52.4962
74	2340	1.41	55.2742
74	3019	1.51	58.0522
74	3697	1.61	60.8302
74	4375	1.71	63.6081
74	5054	1.81	66.3861
74	5732	1.91	69.164
74	6421	2.01	71.942
74	7099	2.11	74.7199
74	7777	2.21	77.4978
74	8455	2.31	80.2757
74	9133	2.41	83.0535
74	9811	2.51	85.8314
74	10489	2.61	88.6092
74	11167	2.71	91.3871
74	11845	2.81	94.1649
74	12523	2.91	96.9427
74	13209	3.01	99.7206
74	13887	3.11	102.498
74	14565	3.21	105.276
74	15243	3.31	108.054
74	15921	3.41	110.832
74	16599	3.51	113.61
74	17277	3.61	116.387
74	17955	3.71	119.165
74	18633	3.81	121.943
74	19311	3.91	124.721
74	19997	4.01	127.498
74	20675	4.11	130.276
74	21353	4.21	133.054
74	22031	4.31	135.832
74	22709	4.41	138.61
74	23387	4.51	141.387
74	24065	4.61	144.165
74	24743	4.71	146.943
74	25421	4.81	149.721
74	26099	4.91	152.498
74	26786	5.01	155.276
74	27464	5.11	158.054
74	28142	5.21	160.827
74	28820	5.31	163.585
74	29498	5.41	166.318
74	30176	5.51	169.015
74	30854	5.61	171.668
74	31532	5.71	174.271
74	32210	5.81	176.818
74	32888	5.91	179.303
74	33574	6.01	181.724
74	34252	6.11	184.077
74	34930	6.21	186.359
74	35608	6.31	188.568
74	36286	6.41	190.703
74	36964	6.51	192.762
74	37642	6.61	194.743
74	38320	6.71	196.646
74	38998	6.81	198.47
74	39676	6.91	200.215
74	40362	7.01	201.879
74	41040	7.11	203.462
74	41718	7.21	204.965
74	42396	7.31	206.386
74	43074	7.41	207.726
74	43752	7.51	208.983
74	44430	7.61	210.16
74	45108	7.71	211.254
74	45786	7.81	212.266
74	46464	7.91	213.196
74	47150	8.01	214.044
74	47828	8.11	214.81
74	48506	8.21	215.493
73	303	1.11	27.78
73	983	1.21	27.78
73	1661	1.31	27.78
73	2340	1.41	27.7799
73	3019	1.51	27.7798
73	3697	1.61	27.7797
73	4375	1.71	27.7796
73	5054	1.81	27.7795
73	5732	1.91	27.7794
73	6421	2.01	27.7792
73	7099	2.11	27.7791
73	7777	2.21	27.7789
73	8455	2.31	27.7788
73	9133	2.41	27.7787
73	9811	2.51	27.7786
73	10489	2.61	27.7785
73	11167	2.71	27.7784
73	11845	2.81	27.7783
73	12523	2.91	27.7782
73	13209	3.01	27.7781
73	13887	3.11	27.778
73	14565	3.21	27.778
73	15243	3.31	27.7779
73	15921	3.41	27.7779
73	16599	3.51	27.7779
73	17277	3.61	27.7778
73	17955	3.71	27.7778
73	18633	3.81	27.7778
73	19311	3.91	27.7778
73	19997	4.01	27.7778
73	20675	4.11	27.7777
73	21353	4.21	27.7777
73	22031	4.31	27.7777
73	22709	4.41	27.7777
73	23387	4.51	27.7777
73	24065	4.61	27.7777
73	24743	4.71	27.7777
73	25421	4.81	27.7777
73	26099	4.91	27.7777
73	26786	5.01	27.7777
73	27464	5.11	27.7663
73	28142	5.21	27.6748
73	28820	5.31	27.4746
73	29498	5.41	27.1652
73	30176	5.51	26.7655
73	30854	5.61	26.2909
73	31532	5.71	25.7545
73	32210	5.81	25.1669
73	32888	5.91	24.537
73	33574	6.01	23.872
73	34252	6.11	23.1782
73	34930	6.21	22.4605
73	35608	6.31	21.7231
73	36286	6.41	20.9696
73	36964	6.51	20.2027
73	37642	6.61	19.4248
73	38320	6.71	18.638
73	38998	6.81	17.8439
73	39676	6.91	17.0439
73	40362	7.01	16.239
73	41040	7.11	15.4302
73	41718	7.21	14.6183
73	42396	7.31	13.8039
73	43074	7.41	12.9876
73	43752	7.51	12.1698
73	44430	7.61	11.3509
73	45108	7.71	10.5312
73	45786	7.81	9.71084
73	46464	7.91	8.89014
73	47150	8.01	8.06924
73	47828	8.11	7.24828
73	48506	8.21	6.42737
71	303	1.11	0
71	983	1.21	-6.39488e-13
71	1661	1.31	-2.80385e-06
71	2340	1.41	-1.03739e-05
71	3019	1.51	-1.66724e-05
71	3697	1.61	-2.14136e-05
71	4375	1.71	-2.50143e-05
71	5054	1.81	-2.78573e-05
71	5732	1.91	-2.97229e-05
71	6421	2.01	-3.07004e-05
71	7099	2.11	-3.12848e-05
71	7777	2.21	-3.11311e-05
71	8455	2.31	-3.04692e-05
71	9133	2.41	-2.97866e-05
71	9811	2.51	-2.87058e-05
71	10489	2.61	-2.71124e-05
71	11167	2.71	-2.51961e-05
71	11845	2.81	-2.31035e-05
71	12523	2.91	-2.09416e-05
71	13209	3.01	-1.90336e-05
71	13887	3.11	-1.73663e-05
71	14565	3.21	-1.56225e-05
71	15243	3.31	-1.42109e-05
71	15921	3.41	-1.3052e-05
71	16599	3.51	-1.19089e-05
71	17277	3.61	-1.07663e-05
71	17955	3.71	-9.65605e-06
71	18633	3.81	-8.6255e-06
71	19311	3.91	-7.83452e-06
71	19997	4.01	-7.4189e-06
71	20675	4.11	-7.32065e-06
71	21353	4.21	-7.09885e-06
71	22031	4.31	-6.81098e-06
71	22709	4.41	-6.4974e-06
71	23387	4.51	-6.18486e-06
71	24065	4.61	-5.88945e-06
71	24743	4.71	-5.6192e-06
71	25421	4.81	-5.37627e-06
71	26099	4.91	-5.1587e-06
71	26786	5.01	-4.96191e-06
71	27464	5.11	-4.78747e-06
71	28142	5.21	-0.0103707
71	28820	5.31	-0.0378045
71	29498	5.41	-0.0606899
71	30176	5.51	-0.0797079
71	30854	5.61	-0.0954367
71	31532	5.71	-0.108368
71	32210	5.81	-0.118918
71	32888	5.91	-0.127441
71	33574	6.01	-0.134236
71	34252	6.11	-0.139559
71	34930	6.21	-0.143626
71	35608	6.31	-0.146618
71	36286	6.41	-0.148693
71	36964	6.51	-0.149981
71	37642	6.61	-0.150595
71	38320	6.71	-0.15063
71	38998	6.81	-0.150168
71	39676	6.91	-0.149276
71	40362	7.01	-0.148014
71	41040	7.11	-0.146433
71	41718	7.21	-0.144574
71	42396	7.31	-0.142477
71	43074	7.41	-0.140171
71	43752	7.51	-0.137686
71	44430	7.61	-0.135043
71	45108	7.71	-0.132265
71	45786	7.81	-0.129369
71	46464	7.91	-0.126371
71	47150	8.01	-0.123284
71	47828	8.11	-0.120121
71	48506	8.21	-0.116893
70	303	1.11	5
70	983	1.21	5
70	1661	1.31	5
70	2340	1.41	5
70	3019	1.51	5
70	3697	1.61	5
70	4375	1.71	4.99999
70	5054	1.81	4.99999
70	5732	1.91	4.99999
70	6421	2.01	4.99999
70	7099	2.11	4.99998
70	7777	2.21	4.99998
70	8455	2.31	4.99998
70	9133	2.41	4.99997
70	9811	2.51	4.99997
70	10489	2.61	4.99997
70	11167	2.71	4.99996
70	11845	2.81	4.99996
70	12523	2.91	4.99996
70	13209	3.01	4.99996
70	13887	3.11	4.99996
70	14565	3.21	4.99995
70	15243	3.31	4.99995
70	15921	3.41	4.99995
70	16599	3.51	4.99995
70	17277	3.61	4.99995
70	17955	3.71	4.99995
70	18633	3.81	4.99995
70	19311	3.91	4.99995
70	19997	4.01	4.99995
70	20675	4.11	4.99994
70	21353	4.21	4.99994
70	22031	4.31	4.99994
70	22709	4.41	4.99994
70	23387	4.51	4.99994
70	24065	4.61	4.99994
70	24743	4.71	4.99994
70	25421	4.81	4.99994
70	26099	4.91	4.99994
70	26786	5.01	4.99994
70	27464	5.11	4.99994
70	28142	5.21	4.9997
70	28820	5.31	4.99725
70	29498	5.41	4.99229
70	30176	5.51	4.98524
70	30854	5.61	4.97646
70	31532	5.71	4.96625
70	32210	5.81	4.95487
70	32888	5.91	4.94253
70	33574	6.01	4.92943
70	34252	6.11	4.91573
70	34930	6.21	4.90156
70	35608	6.31	4.88704
70	36286	6.41	4.87227
70	36964	6.51	4.85733
70	37642	6.61	4.8423
70	38320	6.71	4.82723
70	38998	6.81	4.81219
70	39676	6.91	4.79721
70	40362	7.01	4.78235
70	41040	7.11	4.76762
70	41718	7.21	4.75307
70	42396	7.31	4.73871
70	43074	7.41	4.72458
70	43752	7.51	4.71069
70	44430	7.61	4.69705
70	45108	7.71	4.68368
70	45786	7.81	4.6706
70	46464	7.91	4.65781
70	47150	8.01	4.64533
70	47828	8.11	4.63316
70	48506	8.21	4.62131
72	303	1.11	3
72	983	1.21	3
72	1661	1.31	3
72	2340	1.41	3
72	3019	1.51	3
72	3697	1.61	3
72	4375	1.71	3
72	5054	1.81	3
72	5732	1.91	3
72	6421	2.01	3
72	7099	2.11	3
72	7777	2.21	3
72	8455	2.31	3
72	9133	2.41	3
72	9811	2.51	3
72	10489	2.61	3
72	11167	2.71	3
72	11845	2.81	3
72	12523	2.91	3
72	13209	3.01	3
72	13887	3.11	3
72	14565	3.21	3
72	15243	3.31	3
72	15921	3.41	3
72	16599	3.51	3
72	17277	3.61	3
72	17955	3.71	3
72	18633	3.81	3
72	19311	3.91	3
72	19997	4.01	3
72	20675	4.11	3
72	21353	4.21	3
72	22031	4.31	3
72	22709	4.41	3
72	23387	4.51	3
72	24065	4.61	3
72	24743	4.71	3
72	25421	4.81	3
72	26099	4.91	3
72	26786	5.01	3
72	27464	5.11	3
72	28142	5.21	3
72	28820	5.31	3
72	29498	5.41	3
72	30176	5.51	3
72	30854	5.61	3
72	31532	5.71	3
72	32210	5.81	3
72	32888	5.91	3
72	33574	6.01	3
72	34252	6.11	3
72	34930	6.21	3
72	35608	6.31	3
72	36286	6.41	3
72	36964	6.51	3
72	37642	6.61	3
72	38320	6.71	3
72	38998	6.81	3
72	39676	6.91	3
72	40362	7.01	3
72	41040	7.11	3
72	41718	7.21	3
72	42396	7.31	3
72	43074	7.41	3
72	43752	7.51	3
72	44430	7.61	3
72	45108	7.71	3
72	45786	7.81	3
72	46464	7.91	3
72	47150	8.01	3
72	47828	8.11	3
72	48506	8.21	3
84	1031	1.214071885765	0.100000843423
84	1710	1.314072729187	0.100000843422
84	2388	1.41407357261	0.100000843423
84	3067	1.514074416031	0.100000843421
84	3745	1.614075259452	0.100000843421
84	4423	1.714076102872	0.10000084342
84	5102	1.814063946291	0.099987843419
84	5780	1.91406478971	0.100000843419
84	6469	2.014065633129	0.100000843419
84	7147	2.114066476547	0.100000843418
84	7825	2.214067319966	0.100000843419
84	8503	2.314068163383	0.100000843417
84	9181	2.4140690068	0.100000843417
84	9859	2.514069850215	0.100000843415
84	10537	2.61407069363	0.100000843415
84	11215	2.714071537045	0.100000843415
84	11893	2.81407238046	0.100000843415
84	12571	2.914073223875	0.100000843415
84	13257	3.014074067289	0.100000843414
84	13935	3.114074910703	0.100000843414
84	14613	3.214075754116	0.100000843413
84	15291	3.314076597529	0.100000843413
84	15969	3.414064440942	0.099987843413
84	16647	3.514065284354	0.100000843412
84	17325	3.614066127766	0.100000843412
84	18003	3.714066971177	0.100000843411
84	18681	3.814067814587	0.10000084341
84	19359	3.914068657997	0.10000084341
84	20045	4.014069501407	0.10000084341
84	20723	4.114070344815	0.100000843408
84	21401	4.214071188222	0.100000843407
84	22079	4.31407203163	0.100000843408
84	22757	4.414072875038	0.100000843408
84	23435	4.514073718445	0.100000843407
84	24113	4.614074561851	0.100000843406
84	24791	4.714075405257	0.100000843406
84	25469	4.814076248662	0.100000843405
84	26147	4.914064092068	0.099987843406
84	26834	5.014064935473	0.100000843405
[...]
168	28146	5.21	-1.36134
168	28824	5.31	-2.4968
168	29502	5.41	-3.46749
168	30180	5.51	-4.29177
168	30858	5.61	-4.98366
168	31536	5.71	-5.55545
168	32214	5.81	-6.02787
168	32892	5.91	-6.41806
168	33578	6.01	-6.7402
168	34256	6.11	-7.00602
168	34934	6.21	-7.22522
168	35612	6.31	-7.40582
168	36290	6.41	-7.55447
168	36968	6.51	-7.67668
168	37646	6.61	-7.77699
168	38324	6.71	-7.85917
168	39002	6.81	-7.92635
168	39680	6.91	-7.98112
168	40366	7.01	-8.02561
168	41044	7.11	-8.06159
168	41722	7.21	-8.09055
168	42400	7.31	-8.1137
168	43078	7.41	-8.13205
168	43756	7.51	-8.14643
168	44434	7.61	-8.15754
168	45112	7.71	-8.16596
168	45790	7.81	-8.17216
168	46468	7.91	-8.17654
168	47154	8.01	-8.17942
168	47832	8.11	-8.18108
168	48510	8.21	-8.18174
167	307	1.11	242.45
167	987	1.21	242.45
167	1665	1.31	242.45
167	2344	1.41	242.45
167	3023	1.51	242.45
167	3701	1.61	242.45
167	4379	1.71	242.45
167	5058	1.81	242.45
167	5736	1.91	242.45
167	6425	2.01	242.45
167	7103	2.11	242.45
167	7781	2.21	242.45
167	8459	2.31	242.45
167	9137	2.41	242.45
167	9815	2.51	242.45
167	10493	2.61	242.45
167	11171	2.71	242.45
167	11849	2.81	242.45
167	12527	2.91	242.45
167	13213	3.01	242.45
167	13891	3.11	242.45
167	14569	3.21	242.45
167	15247	3.31	242.45
167	15925	3.41	242.45
167	16603	3.51	242.45
167	17281	3.61	242.45
167	17959	3.71	242.45
167	18637	3.81	242.45
167	19315	3.91	242.45
167	20001	4.01	242.45
167	20679	4.11	242.45
167	21357	4.21	242.45
167	22035	4.31	242.45
167	22713	4.41	242.45
167	23391	4.51	242.45
167	24069	4.61	242.45
167	24747	4.71	242.45
167	25425	4.81	242.45
167	26103	4.91	242.45
167	26790	5.01	242.45
167	27468	5.11	242.45
167	28146	5.21	242.45
167	28824	5.31	242.45
167	29502	5.41	242.45
167	30180	5.51	242.45
167	30858	5.61	242.45
167	31536	5.71	242.45
167	32214	5.81	242.45
167	32892	5.91	242.45
167	33578	6.01	242.45
167	34256	6.11	242.45
167	34934	6.21	242.45
167	35612	6.31	242.45
167	36290	6.41	242.45
167	36968	6.51	242.45
167	37646	6.61	242.45
167	38324	6.71	242.45
167	39002	6.81	242.45
167	39680	6.91	242.45
167	40366	7.01	242.45
167	41044	7.11	242.45
167	41722	7.21	242.45
167	42400	7.31	242.45
167	43078	7.41	242.45
167	43756	7.51	242.45
167	44434	7.61	242.45
167	45112	7.71	242.45
167	45790	7.81	242.45
167	46468	7.91	242.45
167	47154	8.01	242.45
167	47832	8.11	242.45
167	48510	8.21	242.45
166	307	1.11	10.9402
166	987	1.21	13.7182
166	1665	1.31	16.4962
166	2344	1.41	19.2742
166	3023	1.51	22.0522
166	3701	1.61	24.8302
166	4379	1.71	27.6081
166	5058	1.81	30.3861
166	5736	1.91	33.164
166	6425	2.01	35.942
166	7103	2.11	38.7199
166	7781	2.21	41.4978
166	8459	2.31	44.2757
166	9137	2.41	47.0536
166	9815	2.51	49.8314
166	10493	2.61	52.6093
166	11171	2.71	55.3871
166	11849	2.81	58.165
166	12527	2.91	60.9428
166	13213	3.01	63.7206
166	13891	3.11	66.4984
166	14569	3.21	69.2762
166	15247	3.31	72.054
166	15925	3.41	74.8318
166	16603	3.51	77.6096
166	17281	3.61	80.3874
166	17959	3.71	83.1652
166	18637	3.81	85.943
166	19315	3.91	88.7207
166	20001	4.01	91.4985
166	20679	4.11	94.2763
166	21357	4.21	97.0541
166	22035	4.31	99.8319
166	22713	4.41	102.61
166	23391	4.51	105.387
166	24069	4.61	108.165
166	24747	4.71	110.943
166	25425	4.81	113.721
166	26103	4.91	116.499
166	26790	5.01	119.276
166	27468	5.11	122.054
166	28146	5.21	124.827
166	28824	5.31	127.586
166	29502	5.41	130.32
166	30180	5.51	133.019
166	30858	5.61	135.674
166	31536	5.71	138.28
166	32214	5.81	140.83
166	32892	5.91	143.319
166	33578	6.01	145.744
166	34256	6.11	148.102
166	34934	6.21	150.389
166	35612	6.31	152.605
166	36290	6.41	154.746
166	36968	6.51	156.811
166	37646	6.61	158.8
166	38324	6.71	160.711
166	39002	6.81	162.543
166	39680	6.91	164.296
166	40366	7.01	165.969
166	41044	7.11	167.562
166	41722	7.21	169.074
166	42400	7.31	170.505
166	43078	7.41	171.855
166	43756	7.51	173.124
166	44434	7.61	174.312
166	45112	7.71	175.417
166	45790	7.81	176.441
166	46468	7.91	177.384
166	47154	8.01	178.245
166	47832	8.11	179.023
166	48510	8.21	179.72
165	307	1.11	27.78
165	987	1.21	27.78
165	1665	1.31	27.78
165	2344	1.41	27.7799
165	3023	1.51	27.7798
165	3701	1.61	27.7797
165	4379	1.71	27.7796
165	5058	1.81	27.7795
165	5736	1.91	27.7794
165	6425	2.01	27.7792
165	7103	2.11	27.7791
165	7781	2.21	27.779
165	8459	2.31	27.7788
165	9137	2.41	27.7787
165	9815	2.51	27.7786
165	10493	2.61	27.7785
165	11171	2.71	27.7784
165	11849	2.81	27.7783
165	12527	2.91	27.7782
165	13213	3.01	27.7782
165	13891	3.11	27.7781
165	14569	3.21	27.778
165	15247	3.31	27.778
165	15925	3.41	27.7779
165	16603	3.51	27.7779
165	17281	3.61	27.7779
165	17959	3.71	27.7778
165	18637	3.81	27.7778
165	19315	3.91	27.7778
165	20001	4.01	27.7778
165	20679	4.11	27.7778
165	21357	4.21	27.7778
165	22035	4.31	27.7778
165	22713	4.41	27.7778
165	23391	4.51	27.7778
165	24069	4.61	27.7778
165	24747	4.71	27.7778
165	25425	4.81	27.7778
165	26103	4.91	27.7778
165	26790	5.01	27.7778
165	27468	5.11	27.7663
165	28146	5.21	27.6816
165	28824	5.31	27.4819
165	29502	5.41	27.1776
165	30180	5.51	26.7846
165	30858	5.61	26.3163
165	31536	5.71	25.7856
165	32214	5.81	25.2033
165	32892	5.91	24.5785
165	33578	6.01	23.9184
165	34256	6.11	23.2294
165	34934	6.21	22.5164
165	35612	6.31	21.7837
165	36290	6.41	21.0347
165	36968	6.51	20.2723
165	37646	6.61	19.499
165	38324	6.71	18.7166
165	39002	6.81	17.9269
165	39680	6.91	17.1311
165	40366	7.01	16.3305
165	41044	7.11	15.5259
165	41722	7.21	14.7181
165	42400	7.31	13.9077
165	43078	7.41	13.0953
165	43756	7.51	12.2813
165	44434	7.61	11.466
165	45112	7.71	10.6498
165	45790	7.81	9.83281
165	46468	7.91	9.01534
165	47154	8.01	8.19751
165	47832	8.11	7.37947
165	48510	8.21	6.56132
163	307	1.11	0
163	987	1.21	3.10303e-06
163	1665	1.31	9.06612e-06
163	2344	1.41	1.39922e-05
163	3023	1.51	1.82918e-05
163	3701	1.61	2.20329e-05
163	4379	1.71	2.53368e-05
163	5058	1.81	2.80261e-05
163	5736	1.91	3.02337e-05
163	6425	2.01	3.20902e-05
163	7103	2.11	3.39175e-05
163	7781	2.21	3.54082e-05
163	8459	2.31	3.64484e-05
163	9137	2.41	3.74549e-05
163	9815	2.51	3.82016e-05
163	10493	2.61	3.86538e-05
163	11171	2.71	3.88228e-05
163	11849	2.81	3.87279e-05
163	12527	2.91	3.83916e-05
163	13213	3.01	3.80936e-05
163	13891	3.11	3.77993e-05
163	14569	3.21	3.70422e-05
163	15247	3.31	3.62796e-05
163	15925	3.41	3.55023e-05
163	16603	3.51	3.46564e-05
163	17281	3.61	3.34159e-05
163	17959	3.71	3.21844e-05
163	18637	3.81	3.07594e-05
163	19315	3.91	2.89097e-05
163	20001	4.01	2.67907e-05
163	20679	4.11	2.487e-05
163	21357	4.21	2.3161e-05
163	22035	4.31	2.15101e-05
163	22713	4.41	1.98924e-05
163	23391	4.51	1.83149e-05
163	24069	4.61	1.67738e-05
163	24747	4.71	1.52672e-05
163	25425	4.81	1.37944e-05
163	26103	4.91	1.23562e-05
163	26790	5.01	1.09534e-05
163	27468	5.11	9.58738e-06
163	28146	5.21	-0.0205327
163	28824	5.31	-0.0385445
163	29502	5.41	-0.0511467
163	30180	5.51	-0.0612334
163	30858	5.61	-0.0692515
163	31536	5.71	-0.0753055
163	32214	5.81	-0.0797007
163	32892	5.91	-0.0826998
163	33578	6.01	-0.084529
163	34256	6.11	-0.0853824
163	34934	6.21	-0.0854265
163	35612	6.31	-0.0848045
163	36290	6.41	-0.0836391
163	36968	6.51	-0.0820347
163	37646	6.61	-0.080081
163	38324	6.71	-0.0778542
163	39002	6.81	-0.0754194
163	39680	6.91	-0.0728314
163	40366	7.01	-0.0701368
163	41044	7.11	-0.067375
163	41722	7.21	-0.0645789
163	42400	7.31	-0.061776
163	43078	7.41	-0.0589889
163	43756	7.51	-0.0562369
163	44434	7.61	-0.053535
163	45112	7.71	-0.0508957
163	45790	7.81	-0.0483288
163	46468	7.91	-0.045842
163	47154	8.01	-0.0434409
163	47832	8.11	-0.0411299
163	48510	8.21	-0.0389119
162	307	1.11	5
162	987	1.21	5
162	1665	1.31	5
162	2344	1.41	5
162	3023	1.51	5
162	3701	1.61	5.00001
162	4379	1.71	5.00001
162	5058	1.81	5.00001
162	5736	1.91	5.00001
162	6425	2.01	5.00002
162	7103	2.11	5.00002
162	7781	2.21	5.00002
162	8459	2.31	5.00003
162	9137	2.41	5.00003
162	9815	2.51	5.00003
162	10493	2.61	5.00004
162	11171	2.71	5.00004
162	11849	2.81	5.00005
162	12527	2.91	5.00005
162	13213	3.01	5.00005
162	13891	3.11	5.00006
162	14569	3.21	5.00006
162	15247	3.31	5.00006
162	15925	3.41	5.00007
162	16603	3.51	5.00007
162	17281	3.61	5.00008
162	17959	3.71	5.00008
162	18637	3.81	5.00008
162	19315	3.91	5.00008
162	20001	4.01	5.00009
162	20679	4.11	5.00009
162	21357	4.21	5.00009
162	22035	4.31	5.00009
162	22713	4.41	5.0001
162	23391	4.51	5.0001
162	24069	4.61	5.0001
162	24747	4.71	5.0001
162	25425	4.81	5.0001
162	26103	4.91	5.0001
162	26790	5.01	5.00011
162	27468	5.11	5.00011
162	28146	5.21	4.9992
162	28824	5.31	4.9962
162	29502	5.41	4.99167
162	30180	5.51	4.98604
162	30858	5.61	4.9795
162	31536	5.71	4.97226
162	32214	5.81	4.9645
162	32892	5.91	4.95637
162	33578	6.01	4.948
162	34256	6.11	4.93949
162	34934	6.21	4.93095
162	35612	6.31	4.92243
162	36290	6.41	4.914
162	36968	6.51	4.90572
162	37646	6.61	4.89761
162	38324	6.71	4.88971
162	39002	6.81	4.88204
162	39680	6.91	4.87463
162	40366	7.01	4.86748
162	41044	7.11	4.8606
162	41722	7.21	4.85401
162	42400	7.31	4.84769
162	43078	7.41	4.84165
162	43756	7.51	4.83589
162	44434	7.61	4.8304
162	45112	7.71	4.82518
162	45790	7.81	4.82022
162	46468	7.91	4.81551
162	47154	8.01	4.81105
162	47832	8.11	4.80682
162	48510	8.21	4.80282
164	307	1.11	7
164	987	1.21	7
164	1665	1.31	7
164	2344	1.41	7
164	3023	1.51	7
164	3701	1.61	7
164	4379	1.71	7
164	5058	1.81	7
164	5736	1.91	7
164	6425	2.01	7
164	7103	2.11	7
164	7781	2.21	7
164	8459	2.31	7
164	9137	2.41	7
164	9815	2.51	7
164	10493	2.61	7
164	11171	2.71	7
164	11849	2.81	7
164	12527	2.91	7
164	13213	3.01	7
164	13891	3.11	7
164	14569	3.21	7
164	15247	3.31	7
164	15925	3.41	7
164	16603	3.51	7
164	17281	3.61	7
164	17959	3.71	7
164	18637	3.81	7
164	19315	3.91	7
164	20001	4.01	7
164	20679	4.11	7
164	21357	4.21	7
164	22035	4.31	7
164	22713	4.41	7
164	23391	4.51	7
164	24069	4.61	7
164	24747	4.71	7
164	25425	4.81	7
164	26103	4.91	7
164	26790	5.01	7
164	27468	5.11	7
164	28146	5.21	7
164	28824	5.31	7
164	29502	5.41	7
164	30180	5.51	7
164	30858	5.61	7
164	31536	5.71	7
164	32214	5.81	7
164	32892	5.91	7
164	33578	6.01	7
164	34256	6.11	7
164	34934	6.21	7
164	35612	6.31	7
164	36290	6.41	7
164	36968	6.51	7
164	37646	6.61	7
164	38324	6.71	7
164	39002	6.81	7
164	39680	6.91	7
164	40366	7.01	7
164	41044	7.11	7
164	41722	7.21	7
164	42400	7.31	7
164	43078	7.41	7
164	43756	7.51	7
164	44434	7.61	7
164	45112	7.71	7
164	45790	7.81	7
164	46468	7.91	7
164	47154	8.01	7
164	47832	8.11	7
164	48510	8.21	7
176	1249	1.25459506873	0.100000843422
176	1928	1.354595912153	0.100000843423
176	2607	1.454596755575	0.100000843422
176	3285	1.554597598996	0.100000843421
176	3963	1.654598442416	0.10000084342
176	4642	1.754599285836	0.10000084342
176	5320	1.854600129255	0.100000843419
176	5999	1.954600972674	0.100000843419
176	6687	2.054601816092	0.100000843418
176	7365	2.154602659511	0.100000843419
176	8043	2.254603502929	0.100000843418
176	8721	2.354604346346	0.100000843417
176	9399	2.454605189762	0.100000843416
176	10077	2.554606033177	0.100000843415
176	10755	2.654606876592	0.100000843415
176	11433	2.754594720007	0.099987843415
176	12111	2.854595563422	0.100000843415
176	12789	2.954596406836	0.100000843414
176	13475	3.054597250251	0.100000843415
176	14153	3.154598093664	0.100000843413
176	14831	3.254598937077	0.100000843413
176	15509	3.35459978049	0.100000843413
176	16187	3.454600623902	0.100000843412
176	16865	3.554601467314	0.100000843412
176	17543	3.654602310726	0.100000843412
176	18221	3.754603154137	0.100000843411
176	18899	3.854603997547	0.10000084341
176	19577	3.954604840957	0.10000084341
176	20263	4.054605684365	0.100000843408
176	20941	4.154606527772	0.100000843407
176	21619	4.25459437118	0.099987843408
176	22297	4.354595214588	0.100000843408
176	22975	4.454596057995	0.100000843407
176	23653	4.554596901402	0.100000843407
176	24331	4.654597744808	0.100000843406
176	25009	4.754598588213	0.100000843405
176	25687	4.854599431619	0.100000843406
176	26365	4.954600275024	0.100000843405
176	27052	5.054601118429	0.100000843405
176	27730	5.154601961831	0.100000843402
176	28402	5.25460280516	0.100000843329
176	29080	5.354603648321	0.100000843161
176	29758	5.45460449122	0.100000842899
176	30436	5.554605333779	0.100000842559
176	31114	5.654606175936	0.100000842157
176	31792	5.754594017643	0.099987841707
176	32470	5.854594858878	0.100000841235
176	33148	5.954595699628	0.10000084075
176	33834	6.054596539903	0.100000840275
176	34512	6.154597379734	0.100000839831
176	35190	6.254598219176	0.100000839442
176	35868	6.354599058327	0.100000839151
176	36546	6.454599897343	0.100000839016
176	37224	6.554600736478	0.100000839135
176	37902	6.654601576149	0.100000839671
176	38580	6.754602417045	0.100000840896
176	39258	6.854603260213	0.100000843168
176	39936	6.954604107012	0.100000846799
176	40622	7.054604958835	0.100000851823
176	41300	7.154605816896	0.100000858061
176	41978	7.25460668218	0.100000865284
176	42656	7.354594555518	0.099987873338
176	43334	7.454595437634	0.100000882116
176	44012	7.554596329198	0.100000891564
176	44690	7.654597230843	0.100000901645
176	45368	7.754598143177	0.100000912334
176	46046	7.854599066797	0.10000092362
176	46724	7.954600002287	0.10000093549
176	47410	8.054600950224	0.100000947937
176	48088	8.154601911183	0.100000960959
176	48766	8.254602885731	0.100000974548
175	1354	1.255176428979	0.099922843422
175	2033	1.355203272402	0.100026843423
175	2712	1.455217115823	0.100013843421
175	3390	1.555243959244	0.100026843421
175	4068	1.655218802664	0.09997484342
175	4747	1.755180646084	0.09996184342
175	5425	1.855207489503	0.100026843419
175	6104	1.955247332922	0.100039843419
175	6792	2.05523517634	0.099987843418
175	7470	2.155223019759	0.099987843419
175	8148	2.255249863176	0.100026843417
175	8826	2.355172706593	0.099922843417
175	9504	2.455173550008	0.100000843415
175	10182	2.555252393423	0.100078843415
175	10860	2.655266236838	0.100013843415
175	11538	2.755215080253	0.099948843415
175	12216	2.855189923668	0.099974843415
175	12894	2.955229767082	0.100039843414
175	13580	3.055204610497	0.099974843415
175	14258	3.15523145391	0.100026843413
175	14936	3.255219297323	0.099987843413
175	15614	3.355233140736	0.100013843413
175	16292	3.455220984148	0.099987843412
175	16970	3.55516982756	0.099948843412
175	17648	3.655170670971	0.100000843411
175	18326	3.755236514381	0.10006584341
175	19004	3.855211357791	0.09997484341
175	19682	3.955264201201	0.10005284341
175	20368	4.055265044609	0.100000843408
175	21046	4.155187888016	0.099922843407
175	21724	4.255214731424	0.100026843408
175	22402	4.355163574832	0.099948843408
175	23080	4.455229418239	0.100065843407
175	23758	4.555217261646	0.099987843407
175	24436	4.655257105052	0.100039843406
175	25114	4.755205948457	0.099948843405
175	25792	4.855219791863	0.100013843406
175	26470	4.955168635268	0.099948843405
175	27157	5.055182478669	0.100013843401
175	27835	5.155170322012	0.099987843343
175	28513	5.255262165206	0.100091843194
175	29191	5.355224008161	0.099961842955
175	29869	5.45525085079	0.100026842629
175	30547	5.555238693028	0.099987842238
175	31225	5.655187534822	0.099948841794
175	31903	5.755240376134	0.100052841312
175	32581	5.855254216948	0.100013840814
175	33259	5.95521605726	0.099961840312
175	33945	6.055203897083	0.099987839823
175	34623	6.155191736454	0.099987839371
175	35301	6.255218575431	0.100026838977
175	35979	6.355219414115	0.100000838684
175	36657	6.455194252665	0.09997483855
175	37335	6.555247091337	0.100052838672
175	38013	6.655234930551	0.099987839214
175	38691	6.755261770995	0.100026840444
175	39369	6.855249613721	0.099987842726
175	40047	6.955172460084	0.099922846363
175	40733	7.055173311483	0.100000851399
175	41411	7.155187169128	0.100013857645
175	42089	7.255253034008	0.10006586488
175	42767	7.355175906953	0.099922872945
175	43445	7.455254788687	0.100078881734
175	44123	7.555203679881	0.099948891194
175	44801	7.655204581167	0.100000901286
175	45479	7.755244493155	0.100039911988
175	46157	7.85518041644	0.099935923285
175	46835	7.955207351607	0.100026935167
175	47521	8.055182299233	0.099974947626
175	48199	8.155209259891	0.100026960658
175	48877	8.255249234151	0.10003997426
174	1249	1.25459506873	7
174	1928	1.354595912153	7
174	2607	1.454596755575	7
174	3285	1.554597598996	7
174	3963	1.654598442416	7
174	4642	1.754599285836	7
174	5320	1.854600129255	7
174	5999	1.954600972674	7
174	6687	2.054601816092	7
174	7365	2.154602659511	7
174	8043	2.254603502929	7
174	8721	2.354604346346	7
174	9399	2.454605189762	7
174	10077	2.554606033177	7
174	10755	2.654606876592	7
174	11433	2.754594720007	7
174	12111	2.854595563422	7
174	12789	2.954596406836	7
174	13475	3.054597250251	7
174	14153	3.154598093664	7
174	14831	3.254598937077	7
174	15509	3.35459978049	7
174	16187	3.454600623902	7
174	16865	3.554601467314	7
174	17543	3.654602310726	7
174	18221	3.754603154137	7
174	18899	3.854603997547	7
174	19577	3.954604840957	7
174	20263	4.054605684365	7
174	20941	4.154606527772	7
174	21619	4.25459437118	7
174	22297	4.354595214588	7
174	22975	4.454596057995	7
174	23653	4.554596901402	7
174	24331	4.654597744808	7
174	25009	4.754598588213	7
174	25687	4.854599431619	7
174	26365	4.954600275024	7
174	27052	5.054601118429	7
174	27730	5.154601961831	7
174	28402	5.25460280516	7
174	29080	5.354603648321	7
174	29758	5.45460449122	7
174	30436	5.554605333779	7
174	31114	5.654606175936	7
174	31792	5.754594017643	7
174	32470	5.854594858878	7
174	33148	5.954595699628	7
174	33834	6.054596539903	7
174	34512	6.154597379734	7
174	35190	6.254598219176	7
174	35868	6.354599058327	7
174	36546	6.454599897343	7
174	37224	6.554600736478	7
174	37902	6.654601576149	7
174	38580	6.754602417045	7
174	39258	6.854603260213	7
174	39936	6.954604107012	7
174	40622	7.054604958835	7
174	41300	7.154605816896	7
174	41978	7.25460668218	7
174	42656	7.354594555518	7
174	43334	7.454595437634	7
174	44012	7.554596329198	7
174	44690	7.654597230843	7
174	45368	7.754598143177	7
174	46046	7.854599066797	7
174	46724	7.954600002287	7
174	47410	8.054600950224	7
174	48088	8.154601911183	7
174	48766	8.254602885731	7
173	1354	1.255176428979	7
173	2033	1.355203272402	7
173	2712	1.455217115823	7
173	3390	1.555243959244	7
173	4068	1.655218802664	7
173	4747	1.755180646084	7
173	5425	1.855207489503	7
173	6104	1.955247332922	7
173	6792	2.05523517634	7
173	7470	2.155223019759	7
173	8148	2.255249863176	7
173	8826	2.355172706593	7
173	9504	2.455173550008	7
173	10182	2.555252393423	7
173	10860	2.655266236838	7
173	11538	2.755215080253	7
173	12216	2.855189923668	7
173	12894	2.955229767082	7
173	13580	3.055204610497	7
173	14258	3.15523145391	7
173	14936	3.255219297323	7
173	15614	3.355233140736	7
173	16292	3.455220984148	7
173	16970	3.55516982756	7
173	17648	3.655170670971	7
173	18326	3.755236514381	7
173	19004	3.855211357791	7
173	19682	3.955264201201	7
173	20368	4.055265044609	7
173	21046	4.155187888016	7
173	21724	4.255214731424	7
173	22402	4.355163574832	7
173	23080	4.455229418239	7
173	23758	4.555217261646	7
173	24436	4.655257105052	7
173	25114	4.755205948457	7
173	25792	4.855219791863	7
173	26470	4.955168635268	7
173	27157	5.055182478669	7
173	27835	5.155170322012	7
173	28513	5.255262165206	7
173	29191	5.355224008161	7
173	29869	5.45525085079	7
173	30547	5.555238693028	7
173	31225	5.655187534822	7
173	31903	5.755240376134	7
173	32581	5.855254216948	7
173	33259	5.95521605726	7
173	33945	6.055203897083	7
173	34623	6.155191736454	7
173	35301	6.255218575431	7
173	35979	6.355219414115	7
173	36657	6.455194252665	7
173	37335	6.555247091337	7
173	38013	6.655234930551	7
173	38691	6.755261770995	7
173	39369	6.855249613721	7
173	40047	6.955172460084	7
173	40733	7.055173311483	7
173	41411	7.155187169128	7
173	42089	7.255253034008	7
173	42767	7.355175906953	7
173	43445	7.455254788687	7
173	44123	7.555203679881	7
173	44801	7.655204581167	7
173	45479	7.755244493155	7
173	46157	7.85518041644	7
173	46835	7.955207351607	7
173	47521	8.055182299233	7
173	48199	8.155209259891	7
173	48877	8.255249234151	7
172	6267	2	0
172	13057	3	0
172	19845	4	0
172	26634	5	0
172	33422	6	0
172	40210	7	0
172	46998	8	0
171	6267	2	0.044249
171	13057	3	0.04921
171	19845	4	0.04921
171	26634	5	0.04921
171	33422	6	0.04921
171	40210	7	0.04921
171	46998	8	0.04921
170	6267	2	7
170	13057	3	7
170	19845	4	7
170	26634	5	7
170	33422	6	7
170	40210	7	7
170	46998	8	7
