version 2
run Sinusoidal-0-20181231-22:22:54-4822
attr beaconInterval 0.1
attr configname Sinusoidal
attr controller 0
attr datetime 20181231-22:22:54
attr experiment Sinusoidal
attr headway 0.3
attr humanCars 5
attr humanLanes 3
attr inifile omnetpp.ini
attr iterationvars "$nCars=12, $platoonSize=4, $nLanes=3, $humanCars=5, $humanLanes=3, $ploegH=0.5, $controller=0, $sController=\"ACC\", $headway=0.3, $leaderHeadway=1.2, $leaderSpeed=100, $beaconInterval=0.1, $priority=4, $packetSize=200, $0=2, $1=0.3"
attr iterationvarsf nCars=12,platoonSize=4,nLanes=3,humanCars=5,humanLanes=3,ploegH=0.5,controller=0,sController=ACC,headway=0.3,leaderHeadway=1.2,leaderSpeed=100,beaconInterval=0.1,priority=4,packetSize=200,2,0.3-
attr leaderHeadway 1.2
attr leaderSpeed 100
attr measurement "$nCars=12, $platoonSize=4, $nLanes=3, $humanCars=5, $humanLanes=3, $ploegH=0.5, $controller=0, $sController=\"ACC\", $headway=0.3, $leaderHeadway=1.2, $leaderSpeed=100, $beaconInterval=0.1, $priority=4, $packetSize=200, $0=2, $1=0.3"
attr nCars 12
attr nLanes 3
attr network Highway
attr packetSize 200
attr platoonSize 4
attr ploegH 0.5
attr priority 4
attr processid 4822
attr repetition 0
attr replication #0
attr resultdir results
attr runnumber 0
attr sController "\"ACC\""
attr seedset 0
param **.coreDebug false
param **.debug false
param **.headway 0.3s
param **.numberOfCars 12
param **.numberOfCarsPerPlatoon 4
param **.numberOfHumanCars 5
param **.numberOfHumanLanes 3
param **.numberOfLanes 3
param **.numericController 0
param **.seed 0
param **.traffic.humanCars 5
param **.traffic.humanLanes 3
param **.traffic.humanVType "\"vtypehuman\""
param **.traffic.nCars 12
param **.traffic.nLanes 3
param **.traffic.platoonInsertDistance 2m
param **.traffic.platoonInsertHeadway 0.3s
param **.traffic.platoonInsertSpeed 100kmph
param **.traffic.platoonInsertTime "1 s"
param **.traffic.platoonLeaderHeadway 1.2s
param **.traffic.platoonSize 4
param **.traffic.platooningVType "\"vtypeauto\""
param **.traffic_type "\"PlatoonsPlusHumanTraffic\""
param *.**.nic.mac1609_4.bitrate 6Mbps
param *.**.nic.mac1609_4.txPower 100mW
param *.**.nic.mac1609_4.useServiceChannel false
param *.**.nic.phy80211p.analogueModels "xmldoc(\"config.xml\")"
param *.**.nic.phy80211p.decider "xmldoc(\"config.xml\")"
param *.**.nic.phy80211p.maxTXPower 100mW
param *.**.nic.phy80211p.sensitivity -94dBm
param *.**.nic.phy80211p.thermalNoise -95dBm
param *.**.nic.phy80211p.usePropagationDelay true
param *.**.nic.phy80211p.useThermalNoise true
param *.annotations.draw false
param *.connectionManager.drawMaxIntfDist false
param *.connectionManager.maxInterfDist 2600m
param *.connectionManager.sendDirect true
param *.human[*].mobility.x 0
param *.human[*].mobility.y 0
param *.human[*].mobility.z 1.895
param *.human[*].prot.beaconingInterval "0.1 s"
param *.human[*].prot.bitrate "3 Mbps"
param *.human[*].prot.packetSize 200
param *.human[*].prot.priority 4
param *.human[*].prot.txPower "100 mW"
param *.manager.autoShutdown true
param *.manager.configFile "\"./sumocfg/freeway.sumo.cfg\""
param *.manager.host "\"localhost\""
param *.manager.margin 25
param *.manager.moduleDisplayString "\"\""
param *.manager.moduleName "\"vtypeauto=node vtypehuman=human\""
param *.manager.moduleType "\"vtypeauto=org.car2x.veins.modules.application.platooning.PlatoonCar vtypehuman=HumanCar\""
param *.manager.updateInterval 0.01s
param *.manager.useGui true
param *.node[*].appl_type "\"SimplePlatooningApp\""
param *.node[*].helper.nCars 12
param *.node[*].helper.nLanes 3
param *.node[*].helper.platoonSize 4
param *.node[*].helper_type "\"PositionHelper\""
param *.node[*].mobility.x 0
param *.node[*].mobility.y 0
param *.node[*].mobility.z 1.895
param *.node[*].prot.beaconingInterval 0.1s
param *.node[*].prot.packetSize 200
param *.node[*].prot.priority 4
param *.node[*].prot.useControllerAcceleration true
param *.node[*].protocol_type "\"SimplePlatooningBeaconing\""
param *.node[*].scenario.accHeadway 0.3s
param *.node[*].scenario.caccC1 0.5
param *.node[*].scenario.caccOmegaN "0.2 Hz"
param *.node[*].scenario.caccXi 1
param *.node[*].scenario.controller "\"ACC\""
param *.node[*].scenario.engineTau "0.5 s"
param *.node[*].scenario.leaderHeadway 1.2s
param *.node[*].scenario.leaderOscillationFrequency "0.2 Hz"
param *.node[*].scenario.leaderSpeed 100kmph
param *.node[*].scenario.oscillationAmplitude "10 kmph"
param *.node[*].scenario.ploegH 0.5s
param *.node[*].scenario.ploegKd 0.7
param *.node[*].scenario.ploegKp 0.2
param *.node[*].scenario.startOscillating "5 s"
param *.node[*].scenario.useRealisticEngine false
param *.node[*].scenario.vehicleFile "\"./sumocfg/vehicles.xml\""
param *.node[*].scenario_type "\"SinusoidalScenario\""
param *.node[*].unicast.packetLossRate 0
param *.obstacles.debug false
param *.playgroundSizeX 65000m
param *.playgroundSizeY 25000m
param *.playgroundSizeZ 50m
param *.world.use2D false
param *.world.useTorus false

vector 1  Highway.node[0].appl  distance  ETV
vector 2  Highway.node[0].appl  relativeSpeed  ETV
vector 3  Highway.node[0].appl  nodeId  ETV
vector 7  Highway.node[0].appl  acceleration  ETV
vector 8  Highway.node[0].appl  controllerAcceleration  ETV
vector 4  Highway.node[0].appl  speed  ETV
vector 5  Highway.node[0].appl  posx  ETV
vector 6  Highway.node[0].appl  posy  ETV
vector 24  Highway.node[1].appl  distance  ETV
vector 25  Highway.node[1].appl  relativeSpeed  ETV
vector 26  Highway.node[1].appl  nodeId  ETV
vector 30  Highway.node[1].appl  acceleration  ETV
vector 31  Highway.node[1].appl  controllerAcceleration  ETV
vector 27  Highway.node[1].appl  speed  ETV
vector 28  Highway.node[1].appl  posx  ETV
vector 29  Highway.node[1].appl  posy  ETV
vector 47  Highway.node[2].appl  distance  ETV
vector 48  Highway.node[2].appl  relativeSpeed  ETV
vector 49  Highway.node[2].appl  nodeId  ETV
vector 53  Highway.node[2].appl  acceleration  ETV
vector 54  Highway.node[2].appl  controllerAcceleration  ETV
vector 50  Highway.node[2].appl  speed  ETV
vector 51  Highway.node[2].appl  posx  ETV
vector 52  Highway.node[2].appl  posy  ETV
vector 70  Highway.node[3].appl  distance  ETV
vector 71  Highway.node[3].appl  relativeSpeed  ETV
vector 72  Highway.node[3].appl  nodeId  ETV
vector 76  Highway.node[3].appl  acceleration  ETV
vector 77  Highway.node[3].appl  controllerAcceleration  ETV
vector 73  Highway.node[3].appl  speed  ETV
vector 74  Highway.node[3].appl  posx  ETV
vector 75  Highway.node[3].appl  posy  ETV
vector 93  Highway.node[4].appl  distance  ETV
vector 94  Highway.node[4].appl  relativeSpeed  ETV
vector 95  Highway.node[4].appl  nodeId  ETV
vector 99  Highway.node[4].appl  acceleration  ETV
vector 100  Highway.node[4].appl  controllerAcceleration  ETV
vector 96  Highway.node[4].appl  speed  ETV
vector 97  Highway.node[4].appl  posx  ETV
vector 98  Highway.node[4].appl  posy  ETV
vector 116  Highway.node[5].appl  distance  ETV
vector 117  Highway.node[5].appl  relativeSpeed  ETV
vector 118  Highway.node[5].appl  nodeId  ETV
vector 122  Highway.node[5].appl  acceleration  ETV
vector 123  Highway.node[5].appl  controllerAcceleration  ETV
vector 119  Highway.node[5].appl  speed  ETV
vector 120  Highway.node[5].appl  posx  ETV
vector 121  Highway.node[5].appl  posy  ETV
vector 139  Highway.node[6].appl  distance  ETV
vector 140  Highway.node[6].appl  relativeSpeed  ETV
vector 141  Highway.node[6].appl  nodeId  ETV
vector 145  Highway.node[6].appl  acceleration  ETV
vector 146  Highway.node[6].appl  controllerAcceleration  ETV
vector 142  Highway.node[6].appl  speed  ETV
vector 143  Highway.node[6].appl  posx  ETV
vector 144  Highway.node[6].appl  posy  ETV
vector 162  Highway.node[7].appl  distance  ETV
vector 163  Highway.node[7].appl  relativeSpeed  ETV
vector 164  Highway.node[7].appl  nodeId  ETV
vector 168  Highway.node[7].appl  acceleration  ETV
vector 169  Highway.node[7].appl  controllerAcceleration  ETV
vector 165  Highway.node[7].appl  speed  ETV
vector 166  Highway.node[7].appl  posx  ETV
vector 167  Highway.node[7].appl  posy  ETV
vector 185  Highway.node[8].appl  distance  ETV
vector 186  Highway.node[8].appl  relativeSpeed  ETV
vector 187  Highway.node[8].appl  nodeId  ETV
vector 191  Highway.node[8].appl  acceleration  ETV
vector 192  Highway.node[8].appl  controllerAcceleration  ETV
vector 188  Highway.node[8].appl  speed  ETV
vector 189  Highway.node[8].appl  posx  ETV
vector 190  Highway.node[8].appl  posy  ETV
vector 208  Highway.node[9].appl  distance  ETV
vector 209  Highway.node[9].appl  relativeSpeed  ETV
vector 210  Highway.node[9].appl  nodeId  ETV
vector 214  Highway.node[9].appl  acceleration  ETV
vector 215  Highway.node[9].appl  controllerAcceleration  ETV
vector 211  Highway.node[9].appl  speed  ETV
vector 212  Highway.node[9].appl  posx  ETV
vector 213  Highway.node[9].appl  posy  ETV
vector 231  Highway.node[10].appl  distance  ETV
vector 232  Highway.node[10].appl  relativeSpeed  ETV
vector 233  Highway.node[10].appl  nodeId  ETV
vector 237  Highway.node[10].appl  acceleration  ETV
vector 238  Highway.node[10].appl  controllerAcceleration  ETV
vector 234  Highway.node[10].appl  speed  ETV
vector 235  Highway.node[10].appl  posx  ETV
vector 236  Highway.node[10].appl  posy  ETV
vector 254  Highway.node[11].appl  distance  ETV
vector 255  Highway.node[11].appl  relativeSpeed  ETV
vector 256  Highway.node[11].appl  nodeId  ETV
vector 260  Highway.node[11].appl  acceleration  ETV
vector 261  Highway.node[11].appl  controllerAcceleration  ETV
vector 257  Highway.node[11].appl  speed  ETV
vector 258  Highway.node[11].appl  posx  ETV
vector 259  Highway.node[11].appl  posy  ETV
vector 152  Highway.node[6].prot  leaderDelay  ETV
vector 150  Highway.node[6].prot  leaderDelayId  ETV
vector 153  Highway.node[6].prot  frontDelay  ETV
vector 151  Highway.node[6].prot  frontDelayId  ETV
vector 221  Highway.node[9].prot  leaderDelay  ETV
vector 219  Highway.node[9].prot  leaderDelayId  ETV
vector 60  Highway.node[2].prot  leaderDelay  ETV
vector 58  Highway.node[2].prot  leaderDelayId  ETV
vector 61  Highway.node[2].prot  frontDelay  ETV
vector 59  Highway.node[2].prot  frontDelayId  ETV
vector 84  Highway.node[3].prot  frontDelay  ETV
vector 82  Highway.node[3].prot  frontDelayId  ETV
vector 268  Highway.node[11].prot  frontDelay  ETV
vector 266  Highway.node[11].prot  frontDelayId  ETV
vector 222  Highway.node[9].prot  frontDelay  ETV
vector 220  Highway.node[9].prot  frontDelayId  ETV
vector 129  Highway.node[5].prot  leaderDelay  ETV
vector 127  Highway.node[5].prot  leaderDelayId  ETV
vector 130  Highway.node[5].prot  frontDelay  ETV
vector 128  Highway.node[5].prot  frontDelayId  ETV
vector 198  Highway.node[8].prot  leaderDelay  ETV
vector 196  Highway.node[8].prot  leaderDelayId  ETV
vector 267  Highway.node[11].prot  leaderDelay  ETV
vector 265  Highway.node[11].prot  leaderDelayId  ETV
vector 245  Highway.node[10].prot  frontDelay  ETV
vector 243  Highway.node[10].prot  frontDelayId  ETV
vector 175  Highway.node[7].prot  leaderDelay  ETV
vector 173  Highway.node[7].prot  leaderDelayId  ETV
vector 176  Highway.node[7].prot  frontDelay  ETV
vector 174  Highway.node[7].prot  frontDelayId  ETV
vector 244  Highway.node[10].prot  leaderDelay  ETV
vector 242  Highway.node[10].prot  leaderDelayId  ETV
vector 83  Highway.node[3].prot  leaderDelay  ETV
vector 81  Highway.node[3].prot  leaderDelayId  ETV
vector 199  Highway.node[8].prot  frontDelay  ETV
vector 197  Highway.node[8].prot  frontDelayId  ETV
vector 9  Highway.node[0].prot  nodeId  ETV
vector 10  Highway.node[0].prot  busyTime  ETV
vector 11  Highway.node[0].prot  collisions  ETV
vector 32  Highway.node[1].prot  nodeId  ETV
vector 33  Highway.node[1].prot  busyTime  ETV
vector 34  Highway.node[1].prot  collisions  ETV
vector 55  Highway.node[2].prot  nodeId  ETV
vector 56  Highway.node[2].prot  busyTime  ETV
vector 57  Highway.node[2].prot  collisions  ETV
vector 78  Highway.node[3].prot  nodeId  ETV
vector 79  Highway.node[3].prot  busyTime  ETV
vector 80  Highway.node[3].prot  collisions  ETV
vector 101  Highway.node[4].prot  nodeId  ETV
vector 102  Highway.node[4].prot  busyTime  ETV
vector 103  Highway.node[4].prot  collisions  ETV
vector 124  Highway.node[5].prot  nodeId  ETV
vector 125  Highway.node[5].prot  busyTime  ETV
vector 126  Highway.node[5].prot  collisions  ETV
vector 147  Highway.node[6].prot  nodeId  ETV
vector 148  Highway.node[6].prot  busyTime  ETV
vector 149  Highway.node[6].prot  collisions  ETV
vector 170  Highway.node[7].prot  nodeId  ETV
vector 171  Highway.node[7].prot  busyTime  ETV
vector 172  Highway.node[7].prot  collisions  ETV
vector 193  Highway.node[8].prot  nodeId  ETV
vector 194  Highway.node[8].prot  busyTime  ETV
vector 195  Highway.node[8].prot  collisions  ETV
vector 216  Highway.node[9].prot  nodeId  ETV
vector 217  Highway.node[9].prot  busyTime  ETV
vector 218  Highway.node[9].prot  collisions  ETV
vector 239  Highway.node[10].prot  nodeId  ETV
vector 240  Highway.node[10].prot  busyTime  ETV
vector 241  Highway.node[10].prot  collisions  ETV
vector 262  Highway.node[11].prot  nodeId  ETV
vector 263  Highway.node[11].prot  busyTime  ETV
vector 264  Highway.node[11].prot  collisions  ETV
8	333	1.11	-0.00218518
8	1721	1.21	-0.00213419
8	3108	1.31	-0.00205408
8	4496	1.41	-0.00195152
8	5883	1.51	-0.00183238
8	7270	1.61	-0.00170178
8	8656	1.71	-0.00156412
8	10043	1.81	-0.00142314
8	11429	1.91	-0.00128196
8	12830	2.01	-0.00114315
8	14216	2.11	-0.00100877
8	15602	2.21	-0.000880447
8	16988	2.31	-0.000759381
8	18374	2.41	-0.000646445
8	19760	2.51	-0.000542204
8	21146	2.61	-0.000446965
8	22532	2.71	-0.000360819
8	23918	2.81	-0.000283678
8	25304	2.91	-0.000215307
8	26702	3.01	-0.000155357
8	28088	3.11	-0.000103391
8	29474	3.21	-5.89069e-05
8	30860	3.31	-2.13575e-05
8	32246	3.41	9.82919e-06
8	33632	3.51	3.52368e-05
8	35018	3.61	5.54479e-05
8	36404	3.71	7.10335e-05
8	37790	3.81	8.25451e-05
8	39176	3.91	9.05081e-05
8	40574	4.01	9.54172e-05
8	41960	4.11	9.7733e-05
8	43346	4.21	9.78798e-05
8	44732	4.31	9.62447e-05
8	46118	4.41	9.31771e-05
8	47504	4.51	8.89894e-05
8	48890	4.61	8.39579e-05
8	50276	4.71	7.83245e-05
8	51662	4.81	7.22983e-05
8	53048	4.91	6.6058e-05
8	54449	5.01	5.9754e-05
8	55838	5.11	0.348154
8	57227	5.21	0.687312
8	58616	5.31	1.00645
8	60005	5.41	1.29637
8	61394	5.51	1.5
8	62783	5.61	1.5
8	64172	5.71	1.5
8	65561	5.81	1.5
8	66950	5.91	1.5
8	68351	6.01	1.5
8	69740	6.11	1.5
8	71129	6.21	1.5
8	72518	6.31	1.5
8	73907	6.41	1.5
8	75296	6.51	1.49192
8	76685	6.61	1.22651
8	78074	6.71	0.923018
8	79463	6.81	0.589086
8	80852	6.91	0.232356
8	82253	7.01	-0.139213
8	83642	7.11	-0.517613
8	85031	7.21	-0.895148
8	86420	7.31	-1.26397
8	87809	7.41	-1.5
8	89198	7.51	-1.5
8	90587	7.61	-1.5
8	91976	7.71	-1.5
8	93365	7.81	-1.5
8	94754	7.91	-1.5
8	96155	8.01	-1.5
8	97544	8.11	-1.5
8	98933	8.21	-1.5
8	100322	8.31	-1.5
8	101711	8.41	-1.5
8	103100	8.51	-1.5
8	104489	8.61	-1.5
8	105878	8.71	-1.5
8	107267	8.81	-1.5
8	108656	8.91	-1.5
8	110057	9.01	-1.5
8	111446	9.11	-1.5
8	112835	9.21	-1.5
8	114224	9.31	-1.5
8	115613	9.41	-1.5
8	117002	9.51	-1.17849
8	118391	9.61	-0.739823
8	119780	9.71	-0.290475
8	121169	9.81	0.158711
8	122558	9.91	0.597343
8	123959	10.01	1.01627
8	125348	10.11	1.40688
8	126737	10.21	1.5
8	128126	10.31	1.5
8	129515	10.41	1.5
8	130904	10.51	1.5
8	132293	10.61	1.5
8	133682	10.71	1.5
8	135071	10.81	1.5
8	136460	10.91	1.5
8	137861	11.01	1.5
8	139250	11.11	1.5
8	140639	11.21	1.5
8	142028	11.31	1.5
8	143417	11.41	1.5
8	144806	11.51	1.5
8	146195	11.61	1.5
8	147584	11.71	1.5
8	148973	11.81	1.5
8	150362	11.91	1.14206
8	151763	12.01	0.732698
8	153152	12.11	0.307654
8	154541	12.21	-0.122946
8	155930	12.31	-0.549155
8	157319	12.41	-0.962117
8	158708	12.51	-1.35327
8	160097	12.61	-1.5
8	161486	12.71	-1.5
8	162875	12.81	-1.5
8	164264	12.91	-1.5
8	165665	13.01	-1.5
8	167054	13.11	-1.5
8	168443	13.21	-1.5
8	169832	13.31	-1.5
8	171221	13.41	-1.5
8	172610	13.51	-1.5
8	173999	13.61	-1.5
8	175388	13.71	-1.5
8	176777	13.81	-1.5
8	178166	13.91	-1.5
8	179567	14.01	-1.5
8	180956	14.11	-1.5
8	182345	14.21	-1.5
8	183734	14.31	-1.5
8	185123	14.41	-1.30079
8	186512	14.51	-0.888396
8	187901	14.61	-0.457896
8	189290	14.71	-0.0203058
8	190679	14.81	0.414388
8	192068	14.91	0.836546
8	193469	15.01	1.23767
8	194858	15.11	1.5
8	196247	15.21	1.5
8	197636	15.31	1.5
8	199025	15.41	1.5
8	200414	15.51	1.5
8	201803	15.61	1.5
8	203192	15.71	1.5
8	204581	15.81	1.5
8	205970	15.91	1.5
8	207371	16.01	1.5
8	208760	16.11	1.5
8	210149	16.21	1.5
8	211538	16.31	1.5
8	212927	16.41	1.5
8	214316	16.51	1.5
8	215705	16.61	1.5
8	217094	16.71	1.5
8	218483	16.81	1.5
8	219872	16.91	1.24512
8	221273	17.01	0.833462
8	222662	17.11	0.404725
8	224051	17.21	-0.0306459
8	225440	17.31	-0.462424
8	226829	17.41	-0.88151
8	228218	17.51	-1.27913
8	229607	17.61	-1.5
8	230996	17.71	-1.5
8	232385	17.81	-1.5
8	233774	17.91	-1.5
8	235175	18.01	-1.5
8	236564	18.11	-1.5
8	237953	18.21	-1.5
8	239342	18.31	-1.5
8	240731	18.41	-1.5
8	242120	18.51	-1.5
8	243509	18.61	-1.5
8	244898	18.71	-1.5
8	246287	18.81	-1.5
8	247676	18.91	-1.5
8	249077	19.01	-1.5
8	250466	19.11	-1.5
8	251855	19.21	-1.5
8	253244	19.31	-1.5
8	254633	19.41	-1.26568
8	256022	19.51	-0.853817
8	257411	19.61	-0.424368
8	258800	19.71	0.0117583
8	260189	19.81	0.444676
8	261578	19.91	0.864834
8	262979	20.01	1.26381
8	264368	20.11	1.5
8	265757	20.21	1.5
8	267146	20.31	1.5
8	268535	20.41	1.5
8	269924	20.51	1.5
8	271313	20.61	1.5
8	272702	20.71	1.5
8	274091	20.81	1.5
8	275480	20.91	1.5
8	276881	21.01	1.5
8	278270	21.11	1.5
8	279659	21.21	1.5
8	281048	21.31	1.5
8	282437	21.41	1.5
8	283826	21.51	1.5
8	285215	21.61	1.5
8	286604	21.71	1.5
8	287993	21.81	1.5
8	289382	21.91	1.25809
8	290783	22.01	0.846238
8	292172	22.11	0.417115
8	293561	22.21	-0.0187954
8	294950	22.31	-0.451228
8	296339	22.41	-0.871052
8	297728	22.51	-1.26946
8	299117	22.61	-1.5
8	300506	22.71	-1.5
8	301895	22.81	-1.5
8	303284	22.91	-1.5
8	304685	23.01	-1.5
8	306074	23.11	-1.5
8	307463	23.21	-1.5
8	308852	23.31	-1.5
8	310241	23.41	-1.5
8	311630	23.51	-1.5
8	313019	23.61	-1.5
8	314408	23.71	-1.5
8	315797	23.81	-1.5
8	317186	23.91	-1.5
8	318587	24.01	-1.5
8	319976	24.11	-1.5
8	321365	24.21	-1.5
8	322754	24.31	-1.5
8	324143	24.41	-1.26088
8	325532	24.51	-0.849086
8	326921	24.61	-0.41978
8	328310	24.71	0.0161479
8	329699	24.81	0.448824
8	331088	24.91	0.868709
8	332489	25.01	1.26739
8	333878	25.11	1.5
8	335267	25.21	1.5
8	336656	25.31	1.5
8	338045	25.41	1.5
8	339434	25.51	1.5
8	340823	25.61	1.5
8	342212	25.71	1.5
8	343601	25.81	1.5
8	344990	25.91	1.5
8	346391	26.01	1.5
8	347780	26.11	1.5
8	349169	26.21	1.5
8	350558	26.31	1.5
8	351947	26.41	1.5
8	353336	26.51	1.5
8	354725	26.61	1.5
8	356114	26.71	1.5
8	357503	26.81	1.5
8	358892	26.91	1.25987
8	360293	27.01	0.847993
8	361682	27.11	0.418817
8	363071	27.21	-0.0171665
8	364460	27.31	-0.449689
8	365849	27.41	-0.869614
8	367238	27.51	-1.26813
8	368627	27.61	-1.5
7	333	1.11	-0.000358191
7	1721	1.21	-0.000681704
7	3108	1.31	-0.00093487
7	4496	1.41	-0.00112579
7	5883	1.51	-0.00126221
7	7270	1.61	-0.00135149
7	8656	1.71	-0.00140049
7	10043	1.81	-0.00141557
7	11429	1.91	-0.00140255
7	12830	2.01	-0.00136671
7	14216	2.11	-0.0013128
7	15602	2.21	-0.00124502
7	16988	2.31	-0.0011671
7	18374	2.41	-0.00108223
7	19760	2.51	-0.000993208
7	21146	2.61	-0.000902362
7	22532	2.71	-0.000811651
7	23918	2.81	-0.000722679
7	25304	2.91	-0.000636729
7	26702	3.01	-0.0005548
7	28088	3.11	-0.000477639
7	29474	3.21	-0.000405773
7	30860	3.31	-0.00033954
7	32246	3.41	-0.000279116
7	33632	3.51	-0.000224541
7	35018	3.61	-0.000175743
7	36404	3.71	-0.00013256
7	37790	3.81	-9.47571e-05
7	39176	3.91	-6.2046e-05
7	40574	4.01	-3.40986e-05
7	41960	4.11	-1.05605e-05
7	43346	4.21	8.93844e-06
7	44732	4.31	2.4774e-05
7	46118	4.41	3.73203e-05
7	47504	4.51	4.69433e-05
7	48890	4.61	5.39956e-05
7	50276	4.71	5.88124e-05
7	51662	4.81	6.1709e-05
7	53048	4.91	6.29785e-05
7	54449	5.01	6.28903e-05
7	55838	5.11	0.00688718
7	57227	5.21	0.0746459
7	58616	5.31	0.190099
7	60005	5.41	0.340538
7	61394	5.51	0.513051
7	62783	5.61	0.690283
7	64172	5.71	0.83575
7	65561	5.81	0.955083
7	66950	5.91	1.05298
7	68351	6.01	1.13329
7	69740	6.11	1.19917
7	71129	6.21	1.25321
7	72518	6.31	1.29755
7	73907	6.41	1.33392
7	75296	6.51	1.3636
7	76685	6.61	1.37021
7	78074	6.71	1.32727
7	79463	6.81	1.23738
7	80852	6.91	1.10404
7	82253	7.01	0.93147
7	83642	7.11	0.724512
7	85031	7.21	0.488542
7	86420	7.31	0.229305
7	87809	7.41	-0.0448439
7	89198	7.51	-0.306265
7	90587	7.61	-0.520722
7	91976	7.71	-0.696651
7	93365	7.81	-0.840974
7	94754	7.91	-0.959369
7	96155	8.01	-1.05649
7	97544	8.11	-1.13617
7	98933	8.21	-1.20153
7	100322	8.31	-1.25515
7	101711	8.41	-1.29914
7	103100	8.51	-1.33523
7	104489	8.61	-1.36483
7	105878	8.71	-1.38911
7	107267	8.81	-1.40903
7	108656	8.91	-1.42538
7	110057	9.01	-1.43878
7	111446	9.11	-1.44978
7	112835	9.21	-1.4588
7	114224	9.31	-1.4662
7	115613	9.41	-1.47227
7	117002	9.51	-1.46962
7	118391	9.61	-1.39679
7	119780	9.71	-1.25878
7	121169	9.81	-1.0661
7	122558	9.91	-0.829229
7	123959	10.01	-0.55853
7	125348	10.11	-0.264039
7	126737	10.21	0.0394309
7	128126	10.31	0.301825
7	129515	10.41	0.517079
7	130904	10.51	0.693662
7	132293	10.61	0.838522
7	133682	10.71	0.957358
7	135071	10.81	1.05484
7	136460	10.91	1.13482
7	137861	11.01	1.20042
7	139250	11.11	1.25424
7	140639	11.21	1.29839
7	142028	11.31	1.33461
7	143417	11.41	1.36432
7	144806	11.51	1.3887
7	146195	11.61	1.40869
7	147584	11.71	1.4251
7	148973	11.81	1.43855
7	150362	11.91	1.43456
7	151763	12.01	1.36235
7	153152	12.11	1.22999
7	154541	12.21	1.04615
7	155930	12.31	0.819673
7	157319	12.41	0.559519
7	158708	12.51	0.274538
7	160097	12.61	-0.0223415
7	161486	12.71	-0.287805
7	162875	12.81	-0.505578
7	164264	12.91	-0.684228
7	165665	13.01	-0.830783
7	167054	13.11	-0.951009
7	168443	13.21	-1.04964
7	169832	13.31	-1.13054
7	171221	13.41	-1.19692
7	172610	13.51	-1.25137
7	173999	13.61	-1.29603
7	175388	13.71	-1.33268
7	176777	13.81	-1.36274
7	178166	13.91	-1.3874
7	179567	14.01	-1.40763
7	180956	14.11	-1.42422
7	182345	14.21	-1.43783
7	183734	14.31	-1.449
7	185123	14.41	-1.45426
7	186512	14.51	-1.40674
7	187901	14.61	-1.29386
7	189290	14.71	-1.12484
7	190679	14.81	-0.909123
7	192068	14.91	-0.656177
7	193469	15.01	-0.37539
7	194858	15.11	-0.0780586
7	196247	15.21	0.205442
7	197636	15.31	0.438012
7	199025	15.41	0.6288
7	200414	15.51	0.785312
7	201803	15.61	0.913707
7	203192	15.71	1.01904
7	204581	15.81	1.10544
7	205970	15.91	1.17632
7	207371	16.01	1.23447
7	208760	16.11	1.28218
7	210149	16.21	1.32131
7	211538	16.31	1.35341
7	212927	16.41	1.37975
7	214316	16.51	1.40135
7	215705	16.61	1.41907
7	217094	16.71	1.43361
7	218483	16.81	1.44554
7	219872	16.91	1.4503
7	221273	17.01	1.39356
7	222662	17.11	1.27333
7	224051	17.21	1.09867
7	225440	17.31	0.878789
7	226829	17.41	0.622979
7	228218	17.51	0.340424
7	229607	17.61	0.0430294
7	230996	17.71	-0.234178
7	232385	17.81	-0.461585
7	233774	17.91	-0.648138
7	235175	18.01	-0.801177
7	236564	18.11	-0.926722
7	237953	18.21	-1.02971
7	239342	18.31	-1.1142
7	240731	18.41	-1.18351
7	242120	18.51	-1.24037
7	243509	18.61	-1.28701
7	244898	18.71	-1.32527
7	246287	18.81	-1.35666
7	247676	18.91	-1.38242
7	249077	19.01	-1.40354
7	250466	19.11	-1.42087
7	251855	19.21	-1.43508
7	253244	19.31	-1.44675
7	254633	19.41	-1.45172
7	256022	19.51	-1.39839
7	257411	19.61	-1.2809
7	258800	19.71	-1.10833
7	260189	19.81	-0.889996
7	261578	19.91	-0.635245
7	262979	20.01	-0.353353
7	264368	20.11	-0.0559802
7	265757	20.21	0.223554
7	267146	20.31	0.45287
7	268535	20.41	0.640989
7	269924	20.51	0.795311
7	271313	20.61	0.92191
7	272702	20.71	1.02576
7	274091	20.81	1.11096
7	275480	20.91	1.18085
7	276881	21.01	1.23819
7	278270	21.11	1.28522
7	279659	21.21	1.32381
7	281048	21.31	1.35546
7	282437	21.41	1.38143
7	283826	21.51	1.40273
7	285215	21.61	1.4202
7	286604	21.71	1.43454
7	287993	21.81	1.4463
7	289382	21.91	1.4512
7	290783	22.01	1.39661
7	292172	22.11	1.2781
7	293561	22.21	1.10476
7	294950	22.31	0.885844
7	296339	22.41	0.630704
7	297728	22.51	0.34856
7	299117	22.61	0.051183
7	300506	22.71	-0.22749
7	301895	22.81	-0.456098
7	303284	22.91	-0.643637
7	304685	23.01	-0.797484
7	306074	23.11	-0.923692
7	307463	23.21	-1.02723
7	308852	23.31	-1.11216
7	310241	23.41	-1.18184
7	311630	23.51	-1.239
7	313019	23.61	-1.28589
7	314408	23.71	-1.32435
7	315797	23.81	-1.35591
7	317186	23.91	-1.38179
7	318587	24.01	-1.40303
7	319976	24.11	-1.42045
7	321365	24.21	-1.43474
7	322754	24.31	-1.44647
7	324143	24.41	-1.45139
7	325532	24.51	-1.39727
7	326921	24.61	-1.27914
7	328310	24.71	-1.10608
7	329699	24.81	-0.887388
7	331088	24.91	-0.632388
7	332489	25.01	-0.350343
7	333878	25.11	-0.0529625
7	335267	25.21	0.22603
7	336656	25.31	0.454901
7	338045	25.41	0.642655
7	339434	25.51	0.796678
7	340823	25.61	0.923031
7	342212	25.71	1.02668
7	343601	25.81	1.11172
7	344990	25.91	1.18147
7	346391	26.01	1.2387
7	347780	26.11	1.28564
7	349169	26.21	1.32415
7	350558	26.31	1.35574
7	351947	26.41	1.38166
7	353336	26.51	1.40292
7	354725	26.61	1.42036
7	356114	26.71	1.43467
7	357503	26.81	1.4464
7	358892	26.91	1.45132
7	360293	27.01	1.39703
7	361682	27.11	1.27875
7	363071	27.21	1.10559
7	364460	27.31	0.886811
7	365849	27.41	0.631764
7	367238	27.51	0.349677
7	368627	27.61	0.0523027
6	333	1.11	242.45
6	1721	1.21	242.45
6	3108	1.31	242.45
6	4496	1.41	242.45
6	5883	1.51	242.45
6	7270	1.61	242.45
6	8656	1.71	242.45
6	10043	1.81	242.45
6	11429	1.91	242.45
6	12830	2.01	242.45
6	14216	2.11	242.45
6	15602	2.21	242.45
6	16988	2.31	242.45
6	18374	2.41	242.45
6	19760	2.51	242.45
6	21146	2.61	242.45
6	22532	2.71	242.45
6	23918	2.81	242.45
6	25304	2.91	242.45
6	26702	3.01	242.45
6	28088	3.11	242.45
6	29474	3.21	242.45
6	30860	3.31	242.45
6	32246	3.41	242.45
6	33632	3.51	242.45
6	35018	3.61	242.45
6	36404	3.71	242.45
6	37790	3.81	242.45
6	39176	3.91	242.45
6	40574	4.01	242.45
6	41960	4.11	242.45
6	43346	4.21	242.45
6	44732	4.31	242.45
6	46118	4.41	242.45
6	47504	4.51	242.45
6	48890	4.61	242.45
6	50276	4.71	242.45
6	51662	4.81	242.45
6	53048	4.91	242.45
6	54449	5.01	242.45
6	55838	5.11	242.45
6	57227	5.21	242.45
6	58616	5.31	242.45
6	60005	5.41	242.45
6	61394	5.51	242.45
6	62783	5.61	242.45
6	64172	5.71	242.45
6	65561	5.81	242.45
6	66950	5.91	242.45
6	68351	6.01	242.45
6	69740	6.11	242.45
6	71129	6.21	242.45
6	72518	6.31	242.45
6	73907	6.41	242.45
6	75296	6.51	242.45
6	76685	6.61	242.45
6	78074	6.71	242.45
6	79463	6.81	242.45
6	80852	6.91	242.45
6	82253	7.01	242.45
6	83642	7.11	242.45
6	85031	7.21	242.45
6	86420	7.31	242.45
6	87809	7.41	242.45
6	89198	7.51	242.45
6	90587	7.61	242.45
6	91976	7.71	242.45
6	93365	7.81	242.45
6	94754	7.91	242.45
6	96155	8.01	242.45
6	97544	8.11	242.45
6	98933	8.21	242.45
6	100322	8.31	242.45
6	101711	8.41	242.45
6	103100	8.51	242.45
6	104489	8.61	242.45
6	105878	8.71	242.45
6	107267	8.81	242.45
6	108656	8.91	242.45
6	110057	9.01	242.45
6	111446	9.11	242.45
6	112835	9.21	242.45
6	114224	9.31	242.45
6	115613	9.41	242.45
6	117002	9.51	242.45
6	118391	9.61	242.45
6	119780	9.71	242.45
6	121169	9.81	242.45
6	122558	9.91	242.45
6	123959	10.01	242.45
6	125348	10.11	242.45
6	126737	10.21	242.45
6	128126	10.31	242.45
6	129515	10.41	242.45
6	130904	10.51	242.45
6	132293	10.61	242.45
6	133682	10.71	242.45
6	135071	10.81	242.45
6	136460	10.91	242.45
6	137861	11.01	242.45
6	139250	11.11	242.45
6	140639	11.21	242.45
6	142028	11.31	242.45
6	143417	11.41	242.45
6	144806	11.51	242.45
6	146195	11.61	242.45
6	147584	11.71	242.45
6	148973	11.81	242.45
6	150362	11.91	242.45
6	151763	12.01	242.45
6	153152	12.11	242.45
6	154541	12.21	242.45
6	155930	12.31	242.45
6	157319	12.41	242.45
6	158708	12.51	242.45
6	160097	12.61	242.45
6	161486	12.71	242.45
6	162875	12.81	242.45
6	164264	12.91	242.45
6	165665	13.01	242.45
6	167054	13.11	242.45
6	168443	13.21	242.45
6	169832	13.31	242.45
6	171221	13.41	242.45
6	172610	13.51	242.45
6	173999	13.61	242.45
6	175388	13.71	242.45
6	176777	13.81	242.45
6	178166	13.91	242.45
6	179567	14.01	242.45
6	180956	14.11	242.45
6	182345	14.21	242.45
6	183734	14.31	242.45
6	185123	14.41	242.45
6	186512	14.51	242.45
6	187901	14.61	242.45
6	189290	14.71	242.45
6	190679	14.81	242.45
6	192068	14.91	242.45
6	193469	15.01	242.45
6	194858	15.11	242.45
6	196247	15.21	242.45
6	197636	15.31	242.45
6	199025	15.41	242.45
6	200414	15.51	242.45
6	201803	15.61	242.45
6	203192	15.71	242.45
6	204581	15.81	242.45
6	205970	15.91	242.45
6	207371	16.01	242.45
6	208760	16.11	242.45
6	210149	16.21	242.45
6	211538	16.31	242.45
6	212927	16.41	242.45
6	214316	16.51	242.45
6	215705	16.61	242.45
6	217094	16.71	242.45
6	218483	16.81	242.45
6	219872	16.91	242.45
6	221273	17.01	242.45
6	222662	17.11	242.45
6	224051	17.21	242.45
6	225440	17.31	242.45
6	226829	17.41	242.45
6	228218	17.51	242.45
6	229607	17.61	242.45
6	230996	17.71	242.45
6	232385	17.81	242.45
6	233774	17.91	242.45
6	235175	18.01	242.45
6	236564	18.11	242.45
6	237953	18.21	242.45
6	239342	18.31	242.45
6	240731	18.41	242.45
6	242120	18.51	242.45
6	243509	18.61	242.45
6	244898	18.71	242.45
6	246287	18.81	242.45
6	247676	18.91	242.45
6	249077	19.01	242.45
6	250466	19.11	242.45
6	251855	19.21	242.45
6	253244	19.31	242.45
6	254633	19.41	242.45
6	256022	19.51	242.45
6	257411	19.61	242.45
6	258800	19.71	242.45
6	260189	19.81	242.45
6	261578	19.91	242.45
6	262979	20.01	242.45
6	264368	20.11	242.45
6	265757	20.21	242.45
6	267146	20.31	242.45
6	268535	20.41	242.45
6	269924	20.51	242.45
6	271313	20.61	242.45
6	272702	20.71	242.45
6	274091	20.81	242.45
6	275480	20.91	242.45
6	276881	21.01	242.45
6	278270	21.11	242.45
6	279659	21.21	242.45
6	281048	21.31	242.45
6	282437	21.41	242.45
6	283826	21.51	242.45
6	285215	21.61	242.45
6	286604	21.71	242.45
6	287993	21.81	242.45
6	289382	21.91	242.45
6	290783	22.01	242.45
6	292172	22.11	242.45
6	293561	22.21	242.45
6	294950	22.31	242.45
6	296339	22.41	242.45
6	297728	22.51	242.45
6	299117	22.61	242.45
6	300506	22.71	242.45
6	301895	22.81	242.45
6	303284	22.91	242.45
6	304685	23.01	242.45
6	306074	23.11	242.45
6	307463	23.21	242.45
6	308852	23.31	242.45
6	310241	23.41	242.45
6	311630	23.51	242.45
6	313019	23.61	242.45
6	314408	23.71	242.45
6	315797	23.81	242.45
6	317186	23.91	242.45
6	318587	24.01	242.45
6	319976	24.11	242.45
6	321365	24.21	242.45
6	322754	24.31	242.45
6	324143	24.41	242.45
6	325532	24.51	242.45
6	326921	24.61	242.45
6	328310	24.71	242.45
6	329699	24.81	242.45
6	331088	24.91	242.45
6	332489	25.01	242.45
6	333878	25.11	242.45
6	335267	25.21	242.45
6	336656	25.31	242.45
6	338045	25.41	242.45
6	339434	25.51	242.45
6	340823	25.61	242.45
6	342212	25.71	242.45
6	343601	25.81	242.45
6	344990	25.91	242.45
6	346391	26.01	242.45
6	347780	26.11	242.45
6	349169	26.21	242.45
6	350558	26.31	242.45
6	351947	26.41	242.45
6	353336	26.51	242.45
6	354725	26.61	242.45
6	356114	26.71	242.45
6	357503	26.81	242.45
6	358892	26.91	242.45
6	360293	27.01	242.45
6	361682	27.11	242.45
6	363071	27.21	242.45
6	364460	27.31	242.45
6	365849	27.41	242.45
6	367238	27.51	242.45
6	368627	27.61	242.45
5	333	1.11	53.9402
5	1721	1.21	56.7182
5	3108	1.31	59.4962
5	4496	1.41	62.2742
5	5883	1.51	65.0521
5	7270	1.61	67.8301
5	8656	1.71	70.608
5	10043	1.81	73.386
5	11429	1.91	76.1639
5	12830	2.01	78.9418
5	14216	2.11	81.7197
5	15602	2.21	84.4975
5	16988	2.31	87.2754
5	18374	2.41	90.0532
5	19760	2.51	92.8311
5	21146	2.61	95.6089
5	22532	2.71	98.3867
5	23918	2.81	101.165
5	25304	2.91	103.942
5	26702	3.01	106.72
5	28088	3.11	109.498
5	29474	3.21	112.276
5	30860	3.31	115.054
5	32246	3.41	117.831
5	33632	3.51	120.609
5	35018	3.61	123.387
5	36404	3.71	126.165
5	37790	3.81	128.942
5	39176	3.91	131.72
5	40574	4.01	134.498
5	41960	4.11	137.276
5	43346	4.21	140.053
5	44732	4.31	142.831
5	46118	4.41	145.609
5	47504	4.51	148.387
5	48890	4.61	151.165
5	50276	4.71	153.942
5	51662	4.81	156.72
5	53048	4.91	159.498
5	54449	5.01	162.276
5	55838	5.11	165.053
5	57227	5.21	167.831
5	58616	5.31	170.61
5	60005	5.41	173.391
5	61394	5.51	176.175
5	62783	5.61	178.965
5	64172	5.71	181.761
5	65561	5.81	184.566
5	66950	5.91	187.381
5	68351	6.01	190.206
5	69740	6.11	193.043
5	71129	6.21	195.891
5	72518	6.31	198.752
5	73907	6.41	201.626
5	75296	6.51	204.513
5	76685	6.61	207.414
5	78074	6.71	210.329
5	79463	6.81	213.257
5	80852	6.91	216.197
5	82253	7.01	219.148
5	83642	7.11	222.108
5	85031	7.21	225.075
5	86420	7.31	228.047
5	87809	7.41	231.021
5	89198	7.51	233.995
5	90587	7.61	236.965
5	91976	7.71	239.93
5	93365	7.81	242.888
5	94754	7.91	245.838
5	96155	8.01	248.778
5	97544	8.11	251.707
5	98933	8.21	254.625
5	100322	8.31	257.531
5	101711	8.41	260.425
5	103100	8.51	263.305
5	104489	8.61	266.172
5	105878	8.71	269.025
5	107267	8.81	271.865
5	108656	8.91	274.69
5	110057	9.01	277.501
5	111446	9.11	280.298
5	112835	9.21	283.08
5	114224	9.31	285.848
5	115613	9.41	288.601
5	117002	9.51	291.339
5	118391	9.61	294.063
5	119780	9.71	296.773
5	121169	9.81	299.47
5	122558	9.91	302.157
5	123959	10.01	304.836
5	125348	10.11	307.509
5	126737	10.21	310.18
5	128126	10.31	312.852
5	129515	10.41	315.526
5	130904	10.51	318.206
5	132293	10.61	320.893
5	133682	10.71	323.588
5	135071	10.81	326.293
5	136460	10.91	329.008
5	137861	11.01	331.735
5	139250	11.11	334.473
5	140639	11.21	337.225
5	142028	11.31	339.989
5	143417	11.41	342.767
5	144806	11.51	345.558
5	146195	11.61	348.363
5	147584	11.71	351.183
5	148973	11.81	354.016
5	150362	11.91	356.864
5	151763	12.01	359.726
5	153152	12.11	362.602
5	154541	12.21	365.49
5	155930	12.31	368.388
5	157319	12.41	371.294
5	158708	12.51	374.206
5	160097	12.61	377.12
5	161486	12.71	380.034
5	162875	12.81	382.945
5	164264	12.91	385.85
5	165665	13.01	388.749
5	167054	13.11	391.64
5	168443	13.21	394.521
5	169832	13.31	397.391
5	171221	13.41	400.25
5	172610	13.51	403.097
5	173999	13.61	405.932
5	175388	13.71	408.753
5	176777	13.81	411.562
5	178166	13.91	414.356
5	179567	14.01	417.137
5	180956	14.11	419.904
5	182345	14.21	422.656
5	183734	14.31	425.394
5	185123	14.41	428.118
5	186512	14.51	430.827
5	187901	14.61	433.522
5	189290	14.71	436.204
5	190679	14.81	438.875
5	192068	14.91	441.538
5	193469	15.01	444.194
5	194858	15.11	446.846
5	196247	15.21	449.498
5	197636	15.31	452.152
5	199025	15.41	454.81
5	200414	15.51	457.474
5	201803	15.61	460.147
5	203192	15.71	462.829
5	204581	15.81	465.521
5	205970	15.91	468.224
5	207371	16.01	470.939
5	208760	16.11	473.666
5	210149	16.21	476.406
5	211538	16.31	479.159
5	212927	16.41	481.926
5	214316	16.51	484.706
5	215705	16.61	487.501
5	217094	16.71	490.31
5	218483	16.81	493.133
5	219872	16.91	495.971
5	221273	17.01	498.823
5	222662	17.11	501.688
5	224051	17.21	504.567
5	225440	17.31	507.456
5	226829	17.41	510.354
5	228218	17.51	513.258
5	229607	17.61	516.165
5	230996	17.71	519.073
5	232385	17.81	521.978
5	233774	17.91	524.878
5	235175	18.01	527.772
5	236564	18.11	530.657
5	237953	18.21	533.534
5	239342	18.31	536.4
5	240731	18.41	539.255
5	242120	18.51	542.098
5	243509	18.61	544.929
5	244898	18.71	547.746
5	246287	18.81	550.551
5	247676	18.91	553.342
5	249077	19.01	556.119
5	250466	19.11	558.882
5	251855	19.21	561.631
5	253244	19.31	564.365
5	254633	19.41	567.085
5	256022	19.51	569.791
5	257411	19.61	572.483
5	258800	19.71	575.162
5	260189	19.81	577.83
5	261578	19.91	580.489
5	262979	20.01	583.142
5	264368	20.11	585.792
5	265757	20.21	588.442
5	267146	20.31	591.093
5	268535	20.41	593.75
5	269924	20.51	596.413
5	271313	20.61	599.083
5	272702	20.71	601.764
5	274091	20.81	604.454
5	275480	20.91	607.155
5	276881	21.01	609.869
5	278270	21.11	612.595
5	279659	21.21	615.333
5	281048	21.31	618.085
5	282437	21.41	620.85
5	283826	21.51	623.63
5	285215	21.61	626.423
5	286604	21.71	629.23
5	287993	21.81	632.052
5	289382	21.91	634.889
5	290783	22.01	637.739
5	292172	22.11	640.604
5	293561	22.21	643.481
5	294950	22.31	646.369
5	296339	22.41	649.266
5	297728	22.51	652.169
5	299117	22.61	655.075
5	300506	22.71	657.982
5	301895	22.81	660.886
5	303284	22.91	663.786
5	304685	23.01	666.679
5	306074	23.11	669.564
5	307463	23.21	672.44
5	308852	23.31	675.305
5	310241	23.41	678.16
5	311630	23.51	681.002
5	313019	23.61	683.832
5	314408	23.71	686.649
5	315797	23.81	689.453
5	317186	23.91	692.244
5	318587	24.01	695.02
5	319976	24.11	697.783
5	321365	24.21	700.531
5	322754	24.31	703.265
5	324143	24.41	705.985
5	325532	24.51	708.69
5	326921	24.61	711.381
5	328310	24.71	714.06
5	329699	24.81	716.728
5	331088	24.91	719.387
5	332489	25.01	722.039
5	333878	25.11	724.689
5	335267	25.21	727.338
5	336656	25.31	729.99
5	338045	25.41	732.646
5	339434	25.51	735.308
5	340823	25.61	737.979
5	342212	25.71	740.659
5	343601	25.81	743.349
5	344990	25.91	746.05
5	346391	26.01	748.763
5	347780	26.11	751.489
5	349169	26.21	754.227
5	350558	26.31	756.979
5	351947	26.41	759.744
5	353336	26.51	762.523
5	354725	26.61	765.316
5	356114	26.71	768.124
5	357503	26.81	770.945
5	358892	26.91	773.782
5	360293	27.01	776.632
5	361682	27.11	779.496
5	363071	27.21	782.374
5	364460	27.31	785.262
5	365849	27.41	788.158
5	367238	27.51	791.061
5	368627	27.61	793.967
4	333	1.11	27.78
4	1721	1.21	27.7799
4	3108	1.31	27.7798
4	4496	1.41	27.7797
4	5883	1.51	27.7796
4	7270	1.61	27.7795
4	8656	1.71	27.7794
4	10043	1.81	27.7792
4	11429	1.91	27.7791
4	12830	2.01	27.7789
4	14216	2.11	27.7788
4	15602	2.21	27.7787
4	16988	2.31	27.7785
4	18374	2.41	27.7784
4	19760	2.51	27.7783
4	21146	2.61	27.7782
4	22532	2.71	27.7782
4	23918	2.81	27.7781
4	25304	2.91	27.778
4	26702	3.01	27.7779
4	28088	3.11	27.7779
4	29474	3.21	27.7779
4	30860	3.31	27.7778
4	32246	3.41	27.7778
4	33632	3.51	27.7778
4	35018	3.61	27.7777
4	36404	3.71	27.7777
4	37790	3.81	27.7777
4	39176	3.91	27.7777
4	40574	4.01	27.7777
4	41960	4.11	27.7777
4	43346	4.21	27.7777
4	44732	4.31	27.7777
4	46118	4.41	27.7777
4	47504	4.51	27.7777
4	48890	4.61	27.7777
4	50276	4.71	27.7777
4	51662	4.81	27.7777
4	53048	4.91	27.7777
4	54449	5.01	27.7777
4	55838	5.11	27.7778
4	57227	5.21	27.782
4	58616	5.31	27.7958
4	60005	5.41	27.823
4	61394	5.51	27.8667
4	62783	5.61	27.9281
4	64172	5.71	28.0053
4	65561	5.81	28.0957
4	66950	5.91	28.1967
4	68351	6.01	28.3066
4	69740	6.11	28.4236
4	71129	6.21	28.5466
4	72518	6.31	28.6744
4	73907	6.41	28.8062
4	75296	6.51	28.9413
4	76685	6.61	29.0784
4	78074	6.71	29.2134
4	79463	6.81	29.3414
4	80852	6.91	29.458
4	82253	7.01	29.559
4	83642	7.11	29.6409
4	85031	7.21	29.7003
4	86420	7.31	29.7349
4	87809	7.41	29.7425
4	89198	7.51	29.7232
4	90587	7.61	29.6804
4	91976	7.71	29.6184
4	93365	7.81	29.5406
4	94754	7.91	29.4498
4	96155	8.01	29.3483
4	97544	8.11	29.2382
4	98933	8.21	29.1208
4	100322	8.31	28.9976
4	101711	8.41	28.8696
4	103100	8.51	28.7377
4	104489	8.61	28.6025
4	105878	8.71	28.4646
4	107267	8.81	28.3246
4	108656	8.91	28.1828
4	110057	9.01	28.0395
4	111446	9.11	27.895
4	112835	9.21	27.7495
4	114224	9.31	27.6032
4	115613	9.41	27.4562
4	117002	9.51	27.3088
4	118391	9.61	27.1655
4	119780	9.71	27.0331
4	121169	9.81	26.9176
4	122558	9.91	26.824
4	123959	10.01	26.7559
4	125348	10.11	26.7164
4	126737	10.21	26.7071
4	128126	10.31	26.7259
4	129515	10.41	26.7682
4	130904	10.51	26.83
4	132293	10.61	26.9075
4	133682	10.71	26.9981
4	135071	10.81	27.0994
4	136460	10.91	27.2094
4	137861	11.01	27.3266
4	139250	11.11	27.4497
4	140639	11.21	27.5776
4	142028	11.31	27.7095
4	143417	11.41	27.8446
4	144806	11.51	27.9824
4	146195	11.61	28.1224
4	147584	11.71	28.2642
4	148973	11.81	28.4075
4	150362	11.91	28.5516
4	151763	12.01	28.6914
4	153152	12.11	28.8206
4	154541	12.21	28.9337
4	155930	12.31	29.026
4	157319	12.41	29.0936
4	158708	12.51	29.1338
4	160097	12.61	29.1446
4	161486	12.71	29.1273
4	162875	12.81	29.0862
4	164264	12.91	29.0255
4	165665	13.01	28.9488
4	167054	13.11	28.8589
4	168443	13.21	28.7582
4	169832	13.31	28.6487
4	171221	13.41	28.5319
4	172610	13.51	28.4091
4	173999	13.61	28.2814
4	175388	13.71	28.1498
4	176777	13.81	28.0148
4	178166	13.91	27.8771
4	179567	14.01	27.7372
4	180956	14.11	27.5955
4	182345	14.21	27.4523
4	183734	14.31	27.3079
4	185123	14.41	27.1625
4	186512	14.51	27.0193
4	187901	14.61	26.8846
4	189290	14.71	26.7643
4	190679	14.81	26.6635
4	192068	14.91	26.5865
4	193469	15.01	26.5364
4	194858	15.11	26.5154
4	196247	15.21	26.5237
4	197636	15.31	26.5574
4	199025	15.41	26.612
4	200414	15.51	26.6837
4	201803	15.61	26.7695
4	203192	15.71	26.8669
4	204581	15.81	26.9737
4	205970	15.91	27.0882
4	207371	16.01	27.2092
4	208760	16.11	27.3353
4	210149	16.21	27.4657
4	211538	16.31	27.5997
4	212927	16.41	27.7365
4	214316	16.51	27.8757
4	215705	16.61	28.0169
4	217094	16.71	28.1596
4	218483	16.81	28.3036
4	219872	16.91	28.4487
4	221273	17.01	28.591
4	222662	17.11	28.724
4	224051	17.21	28.8419
4	225440	17.31	28.9398
4	226829	17.41	29.0136
4	228218	17.51	29.0603
4	229607	17.61	29.0777
4	230996	17.71	29.0664
4	232385	17.81	29.0301
4	233774	17.91	28.9733
4	235175	18.01	28.8998
4	236564	18.11	28.8126
4	237953	18.21	28.7141
4	239342	18.31	28.6064
4	240731	18.41	28.491
4	242120	18.51	28.3694
4	243509	18.61	28.2428
4	244898	18.71	28.1119
4	246287	18.81	27.9776
4	247676	18.91	27.8405
4	249077	19.01	27.701
4	250466	19.11	27.5597
4	251855	19.21	27.4168
4	253244	19.31	27.2726
4	254633	19.41	27.1275
4	256022	19.51	26.9848
4	257411	19.61	26.8512
4	258800	19.71	26.7324
4	260189	19.81	26.6334
4	261578	19.91	26.5584
4	262979	20.01	26.5105
4	264368	20.11	26.4917
4	265757	20.21	26.502
4	267146	20.31	26.5373
4	268535	20.41	26.5932
4	269924	20.51	26.6661
4	271313	20.61	26.7528
4	272702	20.71	26.8509
4	274091	20.81	26.9583
4	275480	20.91	27.0733
4	276881	21.01	27.1946
4	278270	21.11	27.3211
4	279659	21.21	27.4518
4	281048	21.31	27.586
4	282437	21.41	27.723
4	283826	21.51	27.8624
4	285215	21.61	28.0036
4	286604	21.71	28.1465
4	287993	21.81	28.2906
4	289382	21.91	28.4357
4	290783	22.01	28.5782
4	292172	22.11	28.7117
4	293561	22.21	28.8301
4	294950	22.31	28.9287
4	296339	22.41	29.0033
4	297728	22.51	29.0507
4	299117	22.61	29.069
4	300506	22.71	29.0583
4	301895	22.81	29.0226
4	303284	22.91	28.9664
4	304685	23.01	28.8933
4	306074	23.11	28.8064
4	307463	23.21	28.7082
4	308852	23.31	28.6007
4	310241	23.41	28.4855
4	311630	23.51	28.3641
4	313019	23.61	28.2375
4	314408	23.71	28.1068
4	315797	23.81	27.9725
4	317186	23.91	27.8355
4	318587	24.01	27.6961
4	319976	24.11	27.5548
4	321365	24.21	27.4119
4	322754	24.31	27.2678
4	324143	24.41	27.1227
4	325532	24.51	26.9801
4	326921	24.61	26.8466
4	328310	24.71	26.728
4	329699	24.81	26.6293
4	331088	24.91	26.5546
4	332489	25.01	26.5069
4	333878	25.11	26.4885
4	335267	25.21	26.499
4	336656	25.31	26.5346
4	338045	25.41	26.5907
4	339434	25.51	26.6637
4	340823	25.61	26.7505
4	342212	25.71	26.8487
4	343601	25.81	26.9561
4	344990	25.91	27.0713
4	346391	26.01	27.1927
4	347780	26.11	27.3192
4	349169	26.21	27.4499
4	350558	26.31	27.5841
4	351947	26.41	27.7212
4	353336	26.51	27.8605
4	354725	26.61	28.0018
4	356114	26.71	28.1447
4	357503	26.81	28.2888
4	358892	26.91	28.4339
4	360293	27.01	28.5765
4	361682	27.11	28.71
4	363071	27.21	28.8285
4	364460	27.31	28.9272
4	365849	27.41	29.0018
4	367238	27.51	29.0494
4	368627	27.61	29.0678
2	333	1.11	0
2	1721	1.21	0
2	3108	1.31	0
2	4496	1.41	0
2	5883	1.51	0
2	7270	1.61	0
2	8656	1.71	0
2	10043	1.81	0
2	11429	1.91	0
2	12830	2.01	0
2	14216	2.11	0
2	15602	2.21	0
2	16988	2.31	0
2	18374	2.41	0
2	19760	2.51	0
2	21146	2.61	0
2	22532	2.71	0
2	23918	2.81	0
2	25304	2.91	0
2	26702	3.01	0
2	28088	3.11	0
2	29474	3.21	0
2	30860	3.31	0
2	32246	3.41	0
2	33632	3.51	0
2	35018	3.61	0
2	36404	3.71	0
2	37790	3.81	0
2	39176	3.91	0
2	40574	4.01	0
2	41960	4.11	0
2	43346	4.21	0
2	44732	4.31	0
2	46118	4.41	0
2	47504	4.51	0
2	48890	4.61	0
2	50276	4.71	0
2	51662	4.81	0
2	53048	4.91	0
2	54449	5.01	0
2	55838	5.11	0
2	57227	5.21	0
2	58616	5.31	0
2	60005	5.41	0
2	61394	5.51	0
2	62783	5.61	0
2	64172	5.71	0
2	65561	5.81	0
2	66950	5.91	0
2	68351	6.01	0
2	69740	6.11	0
2	71129	6.21	0
2	72518	6.31	0
2	73907	6.41	0
2	75296	6.51	0
2	76685	6.61	0
2	78074	6.71	0
2	79463	6.81	0
2	80852	6.91	0
2	82253	7.01	0
2	83642	7.11	0
2	85031	7.21	0
2	86420	7.31	0
2	87809	7.41	0
2	89198	7.51	0
2	90587	7.61	0
2	91976	7.71	0
2	93365	7.81	0
2	94754	7.91	0
2	96155	8.01	0
2	97544	8.11	0
2	98933	8.21	0
2	100322	8.31	0
2	101711	8.41	0
2	103100	8.51	0
2	104489	8.61	0
2	105878	8.71	0
2	107267	8.81	0
2	108656	8.91	0
2	110057	9.01	0
2	111446	9.11	0
2	112835	9.21	0
2	114224	9.31	0
2	115613	9.41	0
2	117002	9.51	0
2	118391	9.61	0
2	119780	9.71	0
2	121169	9.81	0
2	122558	9.91	0
2	123959	10.01	0
2	125348	10.11	0
2	126737	10.21	0
2	128126	10.31	0
2	129515	10.41	0
2	130904	10.51	0
2	132293	10.61	0
2	133682	10.71	0
2	135071	10.81	0
2	136460	10.91	0
2	137861	11.01	0
2	139250	11.11	0
2	140639	11.21	0
2	142028	11.31	0
2	143417	11.41	0
2	144806	11.51	0
2	146195	11.61	0
2	147584	11.71	0
2	148973	11.81	0
2	150362	11.91	0
2	151763	12.01	0
2	153152	12.11	0
2	154541	12.21	0
2	155930	12.31	0
2	157319	12.41	0
2	158708	12.51	0
2	160097	12.61	0
2	161486	12.71	0
2	162875	12.81	0
2	164264	12.91	0
2	165665	13.01	0
2	167054	13.11	0
2	168443	13.21	0
2	169832	13.31	0
2	171221	13.41	0
2	172610	13.51	0
2	173999	13.61	0
2	175388	13.71	0
2	176777	13.81	0
2	178166	13.91	0
2	179567	14.01	0
2	180956	14.11	0
2	182345	14.21	0
2	183734	14.31	0
2	185123	14.41	0
2	186512	14.51	0
2	187901	14.61	0
2	189290	14.71	0
2	190679	14.81	0
2	192068	14.91	0
2	193469	15.01	0
2	194858	15.11	0
2	196247	15.21	0
2	197636	15.31	0
2	199025	15.41	0
2	200414	15.51	0
2	201803	15.61	0
2	203192	15.71	0
2	204581	15.81	0
2	205970	15.91	0
2	207371	16.01	0
2	208760	16.11	0
2	210149	16.21	0
2	211538	16.31	0
2	212927	16.41	0
2	214316	16.51	0
2	215705	16.61	0
2	217094	16.71	0
2	218483	16.81	0
2	219872	16.91	0
2	221273	17.01	0
2	222662	17.11	0
2	224051	17.21	0
2	225440	17.31	0
2	226829	17.41	0
2	228218	17.51	0
2	229607	17.61	0
2	230996	17.71	0
2	232385	17.81	0
2	233774	17.91	0
2	235175	18.01	0
2	236564	18.11	0
2	237953	18.21	0
2	239342	18.31	0
2	240731	18.41	0
2	242120	18.51	0
2	243509	18.61	0
2	244898	18.71	0
2	246287	18.81	0
2	247676	18.91	0
2	249077	19.01	0
2	250466	19.11	0
2	251855	19.21	0
2	253244	19.31	0
2	254633	19.41	0
2	256022	19.51	0
2	257411	19.61	0
2	258800	19.71	0
2	260189	19.81	0
2	261578	19.91	0
2	262979	20.01	0
2	264368	20.11	0
2	265757	20.21	0
2	267146	20.31	0
2	268535	20.41	0
2	269924	20.51	0
2	271313	20.61	0
2	272702	20.71	0
2	274091	20.81	0
2	275480	20.91	0
2	276881	21.01	0
2	278270	21.11	0
2	279659	21.21	0
2	281048	21.31	0
2	282437	21.41	0
2	283826	21.51	0
2	285215	21.61	0
2	286604	21.71	0
2	287993	21.81	0
2	289382	21.91	0
2	290783	22.01	0
2	292172	22.11	0
2	293561	22.21	0
2	294950	22.31	0
2	296339	22.41	0
2	297728	22.51	0
2	299117	22.61	0
2	300506	22.71	0
2	301895	22.81	0
2	303284	22.91	0
2	304685	23.01	0
2	306074	23.11	0
2	307463	23.21	0
2	308852	23.31	0
2	310241	23.41	0
2	311630	23.51	0
2	313019	23.61	0
2	314408	23.71	0
2	315797	23.81	0
2	317186	23.91	0
2	318587	24.01	0
2	319976	24.11	0
2	321365	24.21	0
2	322754	24.31	0
2	324143	24.41	0
2	325532	24.51	0
2	326921	24.61	0
2	328310	24.71	0
2	329699	24.81	0
2	331088	24.91	0
2	332489	25.01	0
2	333878	25.11	0
2	335267	25.21	0
2	336656	25.31	0
2	338045	25.41	0
2	339434	25.51	0
2	340823	25.61	0
2	342212	25.71	0
2	343601	25.81	0
2	344990	25.91	0
2	346391	26.01	0
2	347780	26.11	0
2	349169	26.21	0
2	350558	26.31	0
2	351947	26.41	0
2	353336	26.51	0
2	354725	26.61	0
2	356114	26.71	0
2	357503	26.81	0
2	358892	26.91	0
2	360293	27.01	0
2	361682	27.11	0
2	363071	27.21	0
2	364460	27.31	0
2	365849	27.41	0
2	367238	27.51	0
2	368627	27.61	0
1	333	1.11	-1
1	1721	1.21	-1
1	3108	1.31	-1
1	4496	1.41	-1
1	5883	1.51	-1
1	7270	1.61	-1
1	8656	1.71	-1
1	10043	1.81	-1
1	11429	1.91	-1
1	12830	2.01	-1
1	14216	2.11	-1
1	15602	2.21	-1
1	16988	2.31	-1
1	18374	2.41	-1
1	19760	2.51	-1
1	21146	2.61	-1
1	22532	2.71	-1
1	23918	2.81	-1
1	25304	2.91	-1
1	26702	3.01	-1
1	28088	3.11	-1
1	29474	3.21	-1
1	30860	3.31	-1
1	32246	3.41	-1
1	33632	3.51	-1
1	35018	3.61	-1
1	36404	3.71	-1
1	37790	3.81	-1
1	39176	3.91	-1
1	40574	4.01	-1
1	41960	4.11	-1
1	43346	4.21	-1
1	44732	4.31	-1
1	46118	4.41	-1
1	47504	4.51	-1
1	48890	4.61	-1
1	50276	4.71	-1
1	51662	4.81	-1
1	53048	4.91	-1
1	54449	5.01	-1
1	55838	5.11	-1
1	57227	5.21	-1
1	58616	5.31	-1
1	60005	5.41	-1
1	61394	5.51	-1
1	62783	5.61	-1
1	64172	5.71	-1
1	65561	5.81	-1
1	66950	5.91	-1
1	68351	6.01	-1
1	69740	6.11	-1
1	71129	6.21	-1
1	72518	6.31	-1
1	73907	6.41	-1
1	75296	6.51	-1
1	76685	6.61	-1
1	78074	6.71	-1
1	79463	6.81	-1
1	80852	6.91	-1
1	82253	7.01	-1
1	83642	7.11	-1
1	85031	7.21	-1
1	86420	7.31	-1
1	87809	7.41	-1
1	89198	7.51	-1
1	90587	7.61	-1
1	91976	7.71	-1
1	93365	7.81	-1
1	94754	7.91	-1
1	96155	8.01	-1
1	97544	8.11	-1
1	98933	8.21	-1
1	100322	8.31	-1
1	101711	8.41	-1
1	103100	8.51	-1
1	104489	8.61	-1
1	105878	8.71	-1
1	107267	8.81	-1
1	108656	8.91	-1
1	110057	9.01	-1
1	111446	9.11	-1
1	112835	9.21	-1
1	114224	9.31	-1
1	115613	9.41	-1
1	117002	9.51	-1
1	118391	9.61	-1
1	119780	9.71	-1
1	121169	9.81	-1
1	122558	9.91	-1
1	123959	10.01	-1
1	125348	10.11	-1
1	126737	10.21	-1
1	128126	10.31	-1
1	129515	10.41	-1
1	130904	10.51	-1
1	132293	10.61	-1
1	133682	10.71	-1
1	135071	10.81	-1
1	136460	10.91	-1
1	137861	11.01	-1
1	139250	11.11	-1
1	140639	11.21	-1
1	142028	11.31	-1
1	143417	11.41	-1
1	144806	11.51	-1
1	146195	11.61	-1
1	147584	11.71	-1
1	148973	11.81	-1
1	150362	11.91	-1
1	151763	12.01	-1
1	153152	12.11	-1
1	154541	12.21	-1
1	155930	12.31	-1
1	157319	12.41	-1
1	158708	12.51	-1
1	160097	12.61	-1
1	161486	12.71	-1
1	162875	12.81	-1
1	164264	12.91	-1
1	165665	13.01	-1
1	167054	13.11	-1
1	168443	13.21	-1
1	169832	13.31	-1
1	171221	13.41	-1
1	172610	13.51	-1
1	173999	13.61	-1
1	175388	13.71	-1
1	176777	13.81	-1
1	178166	13.91	-1
1	179567	14.01	-1
1	180956	14.11	-1
1	182345	14.21	-1
1	183734	14.31	-1
1	185123	14.41	-1
1	186512	14.51	-1
1	187901	14.61	-1
1	189290	14.71	-1
1	190679	14.81	-1
1	192068	14.91	-1
1	193469	15.01	-1
1	194858	15.11	-1
1	196247	15.21	-1
1	197636	15.31	-1
1	199025	15.41	-1
1	200414	15.51	-1
1	201803	15.61	-1
1	203192	15.71	-1
1	204581	15.81	-1
1	205970	15.91	-1
1	207371	16.01	-1
1	208760	16.11	-1
1	210149	16.21	-1
1	211538	16.31	-1
1	212927	16.41	-1
1	214316	16.51	-1
1	215705	16.61	-1
1	217094	16.71	-1
1	218483	16.81	-1
1	219872	16.91	-1
1	221273	17.01	-1
1	222662	17.11	-1
1	224051	17.21	-1
1	225440	17.31	-1
1	226829	17.41	-1
1	228218	17.51	-1
1	229607	17.61	-1
1	230996	17.71	-1
1	232385	17.81	-1
1	233774	17.91	-1
1	235175	18.01	-1
1	236564	18.11	-1
1	237953	18.21	-1
1	239342	18.31	-1
1	240731	18.41	-1
1	242120	18.51	-1
1	243509	18.61	-1
1	244898	18.71	-1
1	246287	18.81	-1
1	247676	18.91	-1
1	249077	19.01	-1
1	250466	19.11	-1
1	251855	19.21	-1
1	253244	19.31	-1
1	254633	19.41	-1
1	256022	19.51	-1
1	257411	19.61	-1
1	258800	19.71	-1
1	260189	19.81	-1
1	261578	19.91	-1
1	262979	20.01	-1
1	264368	20.11	-1
1	265757	20.21	-1
1	267146	20.31	-1
1	268535	20.41	-1
1	269924	20.51	-1
1	271313	20.61	-1
1	272702	20.71	-1
1	274091	20.81	-1
1	275480	20.91	-1
1	276881	21.01	-1
1	278270	21.11	-1
1	279659	21.21	-1
1	281048	21.31	-1
1	282437	21.41	-1
1	283826	21.51	-1
1	285215	21.61	-1
1	286604	21.71	-1
1	287993	21.81	-1
1	289382	21.91	-1
1	290783	22.01	-1
1	292172	22.11	-1
1	293561	22.21	-1
1	294950	22.31	-1
1	296339	22.41	-1
1	297728	22.51	-1
1	299117	22.61	-1
1	300506	22.71	-1
1	301895	22.81	-1
1	303284	22.91	-1
1	304685	23.01	-1
1	306074	23.11	-1
1	307463	23.21	-1
1	308852	23.31	-1
1	310241	23.41	-1
1	311630	23.51	-1
1	313019	23.61	-1
1	314408	23.71	-1
1	315797	23.81	-1
1	317186	23.91	-1
1	318587	24.01	-1
1	319976	24.11	-1
1	321365	24.21	-1
1	322754	24.31	-1
1	324143	24.41	-1
1	325532	24.51	-1
1	326921	24.61	-1
1	328310	24.71	-1
1	329699	24.81	-1
1	331088	24.91	-1
1	332489	25.01	-1
1	333878	25.11	-1
1	335267	25.21	-1
1	336656	25.31	-1
1	338045	25.41	-1
1	339434	25.51	-1
1	340823	25.61	-1
1	342212	25.71	-1
1	343601	25.81	-1
1	344990	25.91	-1
1	346391	26.01	-1
1	347780	26.11	-1
1	349169	26.21	-1
1	350558	26.31	-1
1	351947	26.41	-1
1	353336	26.51	-1
1	354725	26.61	-1
1	356114	26.71	-1
1	357503	26.81	-1
1	358892	26.91	-1
1	360293	27.01	-1
1	361682	27.11	-1
1	363071	27.21	-1
1	364460	27.31	-1
1	365849	27.41	-1
1	367238	27.51	-1
1	368627	27.61	-1
3	333	1.11	0
3	1721	1.21	0
3	3108	1.31	0
3	4496	1.41	0
3	5883	1.51	0
3	7270	1.61	0
3	8656	1.71	0
3	10043	1.81	0
3	11429	1.91	0
3	12830	2.01	0
3	14216	2.11	0
3	15602	2.21	0
3	16988	2.31	0
3	18374	2.41	0
3	19760	2.51	0
3	21146	2.61	0
3	22532	2.71	0
3	23918	2.81	0
3	25304	2.91	0
3	26702	3.01	0
3	28088	3.11	0
3	29474	3.21	0
3	30860	3.31	0
3	32246	3.41	0
3	33632	3.51	0
3	35018	3.61	0
3	36404	3.71	0
3	37790	3.81	0
3	39176	3.91	0
3	40574	4.01	0
3	41960	4.11	0
3	43346	4.21	0
3	44732	4.31	0
3	46118	4.41	0
3	47504	4.51	0
3	48890	4.61	0
3	50276	4.71	0
3	51662	4.81	0
3	53048	4.91	0
3	54449	5.01	0
3	55838	5.11	0
3	57227	5.21	0
3	58616	5.31	0
3	60005	5.41	0
3	61394	5.51	0
3	62783	5.61	0
3	64172	5.71	0
3	65561	5.81	0
3	66950	5.91	0
3	68351	6.01	0
3	69740	6.11	0
3	71129	6.21	0
3	72518	6.31	0
3	73907	6.41	0
3	75296	6.51	0
3	76685	6.61	0
3	78074	6.71	0
3	79463	6.81	0
3	80852	6.91	0
3	82253	7.01	0
3	83642	7.11	0
3	85031	7.21	0
3	86420	7.31	0
3	87809	7.41	0
3	89198	7.51	0
3	90587	7.61	0
3	91976	7.71	0
3	93365	7.81	0
3	94754	7.91	0
3	96155	8.01	0
3	97544	8.11	0
3	98933	8.21	0
3	100322	8.31	0
3	101711	8.41	0
3	103100	8.51	0
3	104489	8.61	0
3	105878	8.71	0
3	107267	8.81	0
3	108656	8.91	0
3	110057	9.01	0
3	111446	9.11	0
3	112835	9.21	0
3	114224	9.31	0
3	115613	9.41	0
3	117002	9.51	0
3	118391	9.61	0
3	119780	9.71	0
3	121169	9.81	0
3	122558	9.91	0
3	123959	10.01	0
3	125348	10.11	0
3	126737	10.21	0
3	128126	10.31	0
3	129515	10.41	0
3	130904	10.51	0
3	132293	10.61	0
3	133682	10.71	0
3	135071	10.81	0
3	136460	10.91	0
3	137861	11.01	0
3	139250	11.11	0
3	140639	11.21	0
3	142028	11.31	0
3	143417	11.41	0
3	144806	11.51	0
3	146195	11.61	0
3	147584	11.71	0
3	148973	11.81	0
3	150362	11.91	0
3	151763	12.01	0
3	153152	12.11	0
3	154541	12.21	0
3	155930	12.31	0
3	157319	12.41	0
3	158708	12.51	0
3	160097	12.61	0
3	161486	12.71	0
3	162875	12.81	0
3	164264	12.91	0
3	165665	13.01	0
3	167054	13.11	0
3	168443	13.21	0
3	169832	13.31	0
3	171221	13.41	0
3	172610	13.51	0
3	173999	13.61	0
3	175388	13.71	0
3	176777	13.81	0
3	178166	13.91	0
3	179567	14.01	0
3	180956	14.11	0
3	182345	14.21	0
3	183734	14.31	0
3	185123	14.41	0
3	186512	14.51	0
3	187901	14.61	0
3	189290	14.71	0
3	190679	14.81	0
3	192068	14.91	0
3	193469	15.01	0
3	194858	15.11	0
3	196247	15.21	0
3	197636	15.31	0
3	199025	15.41	0
3	200414	15.51	0
3	201803	15.61	0
3	203192	15.71	0
3	204581	15.81	0
3	205970	15.91	0
3	207371	16.01	0
3	208760	16.11	0
3	210149	16.21	0
3	211538	16.31	0
3	212927	16.41	0
3	214316	16.51	0
3	215705	16.61	0
3	217094	16.71	0
3	218483	16.81	0
3	219872	16.91	0
3	221273	17.01	0
3	222662	17.11	0
3	224051	17.21	0
3	225440	17.31	0
3	226829	17.41	0
3	228218	17.51	0
3	229607	17.61	0
3	230996	17.71	0
3	232385	17.81	0
3	233774	17.91	0
3	235175	18.01	0
3	236564	18.11	0
3	237953	18.21	0
3	239342	18.31	0
3	240731	18.41	0
3	242120	18.51	0
3	243509	18.61	0
3	244898	18.71	0
3	246287	18.81	0
3	247676	18.91	0
3	249077	19.01	0
3	250466	19.11	0
3	251855	19.21	0
3	253244	19.31	0
3	254633	19.41	0
3	256022	19.51	0
3	257411	19.61	0
3	258800	19.71	0
3	260189	19.81	0
3	261578	19.91	0
3	262979	20.01	0
3	264368	20.11	0
3	265757	20.21	0
3	267146	20.31	0
3	268535	20.41	0
3	269924	20.51	0
3	271313	20.61	0
3	272702	20.71	0
3	274091	20.81	0
3	275480	20.91	0
3	276881	21.01	0
3	278270	21.11	0
3	279659	21.21	0
3	281048	21.31	0
3	282437	21.41	0
3	283826	21.51	0
3	285215	21.61	0
3	286604	21.71	0
3	287993	21.81	0
3	289382	21.91	0
3	290783	22.01	0
3	292172	22.11	0
3	293561	22.21	0
3	294950	22.31	0
3	296339	22.41	0
3	297728	22.51	0
3	299117	22.61	0
3	300506	22.71	0
3	301895	22.81	0
3	303284	22.91	0
3	304685	23.01	0
3	306074	23.11	0
3	307463	23.21	0
3	308852	23.31	0
3	310241	23.41	0
3	311630	23.51	0
3	313019	23.61	0
3	314408	23.71	0
3	315797	23.81	0
3	317186	23.91	0
3	318587	24.01	0
3	319976	24.11	0
3	321365	24.21	0
3	322754	24.31	0
3	324143	24.41	0
3	325532	24.51	0
3	326921	24.61	0
3	328310	24.71	0
3	329699	24.81	0
3	331088	24.91	0
3	332489	25.01	0
3	333878	25.11	0
3	335267	25.21	0
3	336656	25.31	0
3	338045	25.41	0
3	339434	25.51	0
3	340823	25.61	0
3	342212	25.71	0
3	343601	25.81	0
3	344990	25.91	0
3	346391	26.01	0
3	347780	26.11	0
3	349169	26.21	0
3	350558	26.31	0
3	351947	26.41	0
3	353336	26.51	0
3	354725	26.61	0
3	356114	26.71	0
3	357503	26.81	0
3	358892	26.91	0
3	360293	27.01	0
3	361682	27.11	0
3	363071	27.21	0
3	364460	27.31	0
3	365849	27.41	0
3	367238	27.51	0
3	368627	27.61	0
11	12604	2	0
11	26478	3	0
11	40350	4	0
11	54225	5	0
11	68124	6	0
11	82026	7	0
11	95928	8	0
11	109830	9	0
11	123732	10	0
11	137634	11	0
11	151536	12	0
11	165438	13	0
11	179340	14	0
11	193242	15	0
11	207144	16	0
11	221046	17	0
11	234948	18	0
11	248850	19	0
11	262752	20	0
11	276654	21	0
11	290556	22	0
11	304458	23	0
11	318360	24	0
11	332262	25	0
11	346164	26	0
11	360066	27	0
10	12604	2	0.062105
10	26478	3	0.06905
10	40350	4	0.06905
10	54225	5	0.06905
10	68124	6	0.06905
10	82026	7	0.06905
10	95928	8	0.06905
10	109830	9	0.06905
10	123732	10	0.06905
10	137634	11	0.06905
10	151536	12	0.06905
10	165438	13	0.06905
10	179340	14	0.06905
10	193242	15	0.06905
10	207144	16	0.06905
10	221046	17	0.06905
10	234948	18	0.06905
10	248850	19	0.06905
10	262752	20	0.06905
10	276654	21	0.06905
10	290556	22	0.06905
10	304458	23	0.06905
10	318360	24	0.06905
10	332262	25	0.06905
10	346164	26	0.06905
10	360066	27	0.06905
9	12604	2	0
9	26478	3	0
9	40350	4	0
9	54225	5	0
9	68124	6	0
9	82026	7	0
9	95928	8	0
9	109830	9	0
9	123732	10	0
9	137634	11	0
9	151536	12	0
9	165438	13	0
9	179340	14	0
9	193242	15	0
9	207144	16	0
9	221046	17	0
9	234948	18	0
9	248850	19	0
9	262752	20	0
9	276654	21	0
9	290556	22	0
9	304458	23	0
9	318360	24	0
9	332262	25	0
9	346164	26	0
9	360066	27	0
31	334	1.11	-0.00218518
31	1722	1.21	-0.00213419
31	3109	1.31	-0.00205408
31	4497	1.41	-0.00195152
31	5884	1.51	-0.00183238
31	7271	1.61	-0.00170178
31	8657	1.71	-0.00156412
31	10044	1.81	-0.00142314
31	11430	1.91	-0.00128196
31	12831	2.01	-0.00114315
31	14217	2.11	-0.00100877
31	15603	2.21	-0.000880447
31	16989	2.31	-0.000759381
31	18375	2.41	-0.000646445
31	19761	2.51	-0.000542204
31	21147	2.61	-0.000446965
31	22533	2.71	-0.000360819
31	23919	2.81	-0.000283678
31	25305	2.91	-0.000215307
31	26703	3.01	-0.000155357
31	28089	3.11	-0.000103391
31	29475	3.21	-5.89069e-05
31	30861	3.31	-2.13575e-05
31	32247	3.41	9.82919e-06
31	33633	3.51	3.52368e-05
31	35019	3.61	5.54479e-05
31	36405	3.71	7.10335e-05
31	37791	3.81	8.25451e-05
31	39177	3.91	9.05081e-05
31	40575	4.01	9.54172e-05
31	41961	4.11	9.7733e-05
31	43347	4.21	9.78798e-05
31	44733	4.31	9.62447e-05
31	46119	4.41	9.31771e-05
31	47505	4.51	8.89894e-05
31	48891	4.61	8.39579e-05
31	50277	4.71	7.83245e-05
31	51663	4.81	7.22983e-05
31	53049	4.91	6.6058e-05
31	54450	5.01	5.9754e-05
31	55839	5.11	0.348154
31	57228	5.21	0.687312
31	58617	5.31	1.00645
31	60006	5.41	1.29637
31	61395	5.51	1.5
31	62784	5.61	1.5
31	64173	5.71	1.5
31	65562	5.81	1.5
31	66951	5.91	1.5
31	68352	6.01	1.5
31	69741	6.11	1.5
31	71130	6.21	1.5
31	72519	6.31	1.5
31	73908	6.41	1.5
31	75297	6.51	1.49192
31	76686	6.61	1.22651
31	78075	6.71	0.923018
31	79464	6.81	0.589086
31	80853	6.91	0.232356
31	82254	7.01	-0.139213
31	83643	7.11	-0.517613
31	85032	7.21	-0.895148
31	86421	7.31	-1.26397
31	87810	7.41	-1.5
31	89199	7.51	-1.5
31	90588	7.61	-1.5
31	91977	7.71	-1.5
31	93366	7.81	-1.5
31	94755	7.91	-1.5
31	96156	8.01	-1.5
31	97545	8.11	-1.5
31	98934	8.21	-1.5
31	100323	8.31	-1.5
31	101712	8.41	-1.5
31	103101	8.51	-1.5
31	104490	8.61	-1.5
31	105879	8.71	-1.5
31	107268	8.81	-1.5
31	108657	8.91	-1.5
31	110058	9.01	-1.5
31	111447	9.11	-1.5
31	112836	9.21	-1.5
31	114225	9.31	-1.5
31	115614	9.41	-1.5
31	117003	9.51	-1.17849
31	118392	9.61	-0.739823
31	119781	9.71	-0.290475
31	121170	9.81	0.158711
31	122559	9.91	0.597343
31	123960	10.01	1.01627
31	125349	10.11	1.40688
31	126738	10.21	1.5
31	128127	10.31	1.5
31	129516	10.41	1.5
31	130905	10.51	1.5
31	132294	10.61	1.5
31	133683	10.71	1.5
31	135072	10.81	1.5
31	136461	10.91	1.5
31	137862	11.01	1.5
31	139251	11.11	1.5
31	140640	11.21	1.5
31	142029	11.31	1.5
31	143418	11.41	1.5
31	144807	11.51	1.5
31	146196	11.61	1.5
31	147585	11.71	1.5
31	148974	11.81	1.5
31	150363	11.91	1.14206
31	151764	12.01	0.732698
31	153153	12.11	0.307654
31	154542	12.21	-0.122946
31	155931	12.31	-0.549155
31	157320	12.41	-0.962117
31	158709	12.51	-1.35327
31	160098	12.61	-1.5
31	161487	12.71	-1.5
31	162876	12.81	-1.5
31	164265	12.91	-1.5
31	165666	13.01	-1.5
31	167055	13.11	-1.5
31	168444	13.21	-1.5
31	169833	13.31	-1.5
31	171222	13.41	-1.5
31	172611	13.51	-1.5
31	174000	13.61	-1.5
31	175389	13.71	-1.5
31	176778	13.81	-1.5
31	178167	13.91	-1.5
31	179568	14.01	-1.5
31	180957	14.11	-1.5
31	182346	14.21	-1.5
31	183735	14.31	-1.5
31	185124	14.41	-1.30079
31	186513	14.51	-0.888396
31	187902	14.61	-0.457896
31	189291	14.71	-0.0203058
31	190680	14.81	0.414388
31	192069	14.91	0.836546
31	193470	15.01	1.23767
31	194859	15.11	1.5
31	196248	15.21	1.5
31	197637	15.31	1.5
31	199026	15.41	1.5
31	200415	15.51	1.5
31	201804	15.61	1.5
31	203193	15.71	1.5
31	204582	15.81	1.5
31	205971	15.91	1.5
31	207372	16.01	1.5
31	208761	16.11	1.5
31	210150	16.21	1.5
31	211539	16.31	1.5
31	212928	16.41	1.5
31	214317	16.51	1.5
31	215706	16.61	1.5
31	217095	16.71	1.5
31	218484	16.81	1.5
31	219873	16.91	1.24512
31	221274	17.01	0.833462
31	222663	17.11	0.404725
31	224052	17.21	-0.0306459
31	225441	17.31	-0.462424
31	226830	17.41	-0.88151
31	228219	17.51	-1.27913
31	229608	17.61	-1.5
31	230997	17.71	-1.5
31	232386	17.81	-1.5
31	233775	17.91	-1.5
31	235176	18.01	-1.5
31	236565	18.11	-1.5
31	237954	18.21	-1.5
31	239343	18.31	-1.5
31	240732	18.41	-1.5
31	242121	18.51	-1.5
31	243510	18.61	-1.5
31	244899	18.71	-1.5
31	246288	18.81	-1.5
31	247677	18.91	-1.5
31	249078	19.01	-1.5
31	250467	19.11	-1.5
31	251856	19.21	-1.5
31	253245	19.31	-1.5
31	254634	19.41	-1.26568
31	256023	19.51	-0.853817
31	257412	19.61	-0.424368
31	258801	19.71	0.0117583
31	260190	19.81	0.444676
31	261579	19.91	0.864834
31	262980	20.01	1.26381
31	264369	20.11	1.5
31	265758	20.21	1.5
31	267147	20.31	1.5
31	268536	20.41	1.5
31	269925	20.51	1.5
31	271314	20.61	1.5
31	272703	20.71	1.5
31	274092	20.81	1.5
31	275481	20.91	1.5
31	276882	21.01	1.5
31	278271	21.11	1.5
31	279660	21.21	1.5
31	281049	21.31	1.5
31	282438	21.41	1.5
31	283827	21.51	1.5
31	285216	21.61	1.5
31	286605	21.71	1.5
31	287994	21.81	1.5
31	289383	21.91	1.25809
31	290784	22.01	0.846238
31	292173	22.11	0.417115
31	293562	22.21	-0.0187954
31	294951	22.31	-0.451228
31	296340	22.41	-0.871052
31	297729	22.51	-1.26946
31	299118	22.61	-1.5
31	300507	22.71	-1.5
31	301896	22.81	-1.5
31	303285	22.91	-1.5
31	304686	23.01	-1.5
31	306075	23.11	-1.5
31	307464	23.21	-1.5
31	308853	23.31	-1.5
31	310242	23.41	-1.5
31	311631	23.51	-1.5
31	313020	23.61	-1.5
31	314409	23.71	-1.5
31	315798	23.81	-1.5
31	317187	23.91	-1.5
31	318588	24.01	-1.5
31	319977	24.11	-1.5
31	321366	24.21	-1.5
31	322755	24.31	-1.5
31	324144	24.41	-1.26088
31	325533	24.51	-0.849086
31	326922	24.61	-0.41978
31	328311	24.71	0.0161479
31	329700	24.81	0.448824
31	331089	24.91	0.868709
31	332490	25.01	1.26739
31	333879	25.11	1.5
31	335268	25.21	1.5
31	336657	25.31	1.5
31	338046	25.41	1.5
31	339435	25.51	1.5
31	340824	25.61	1.5
31	342213	25.71	1.5
31	343602	25.81	1.5
31	344991	25.91	1.5
31	346392	26.01	1.5
31	347781	26.11	1.5
31	349170	26.21	1.5
31	350559	26.31	1.5
31	351948	26.41	1.5
31	353337	26.51	1.5
31	354726	26.61	1.5
31	356115	26.71	1.5
31	357504	26.81	1.5
31	358893	26.91	1.25987
31	360294	27.01	0.847993
31	361683	27.11	0.418817
31	363072	27.21	-0.0171665
31	364461	27.31	-0.449689
31	365850	27.41	-0.869614
31	367239	27.51	-1.26813
31	368628	27.61	-1.5
30	334	1.11	-0.000358191
30	1722	1.21	-0.000681704
30	3109	1.31	-0.00093487
30	4497	1.41	-0.00112579
30	5884	1.51	-0.00126221
30	7271	1.61	-0.00135149
30	8657	1.71	-0.00140049
30	10044	1.81	-0.00141557
30	11430	1.91	-0.00140255
30	12831	2.01	-0.00136671
30	14217	2.11	-0.0013128
30	15603	2.21	-0.00124502
30	16989	2.31	-0.0011671
30	18375	2.41	-0.00108223
30	19761	2.51	-0.000993208
30	21147	2.61	-0.000902362
30	22533	2.71	-0.000811651
30	23919	2.81	-0.000722679
30	25305	2.91	-0.000636729
30	26703	3.01	-0.0005548
30	28089	3.11	-0.000477639
30	29475	3.21	-0.000405773
30	30861	3.31	-0.00033954
30	32247	3.41	-0.000279116
30	33633	3.51	-0.000224541
30	35019	3.61	-0.000175743
30	36405	3.71	-0.00013256
30	37791	3.81	-9.47571e-05
30	39177	3.91	-6.2046e-05
30	40575	4.01	-3.40986e-05
30	41961	4.11	-1.05605e-05
30	43347	4.21	8.93844e-06
30	44733	4.31	2.4774e-05
30	46119	4.41	3.73203e-05
30	47505	4.51	4.69433e-05
30	48891	4.61	5.39956e-05
30	50277	4.71	5.88124e-05
30	51663	4.81	6.1709e-05
30	53049	4.91	6.29785e-05
30	54450	5.01	6.28903e-05
30	55839	5.11	0.00688718
30	57228	5.21	0.0746459
30	58617	5.31	0.190099
30	60006	5.41	0.340538
30	61395	5.51	0.513051
30	62784	5.61	0.690283
30	64173	5.71	0.83575
30	65562	5.81	0.955083
30	66951	5.91	1.05298
30	68352	6.01	1.13329
30	69741	6.11	1.19917
30	71130	6.21	1.25321
30	72519	6.31	1.29755
30	73908	6.41	1.33392
30	75297	6.51	1.3636
30	76686	6.61	1.37021
30	78075	6.71	1.32727
30	79464	6.81	1.23738
30	80853	6.91	1.10404
30	82254	7.01	0.93147
30	83643	7.11	0.724512
30	85032	7.21	0.488542
30	86421	7.31	0.229305
30	87810	7.41	-0.0448439
30	89199	7.51	-0.306265
30	90588	7.61	-0.520722
30	91977	7.71	-0.696651
30	93366	7.81	-0.840974
30	94755	7.91	-0.959369
30	96156	8.01	-1.05649
30	97545	8.11	-1.13617
30	98934	8.21	-1.20153
30	100323	8.31	-1.25515
30	101712	8.41	-1.29914
30	103101	8.51	-1.33523
30	104490	8.61	-1.36483
30	105879	8.71	-1.38911
30	107268	8.81	-1.40903
30	108657	8.91	-1.42538
30	110058	9.01	-1.43878
30	111447	9.11	-1.44978
30	112836	9.21	-1.4588
30	114225	9.31	-1.4662
30	115614	9.41	-1.47227
30	117003	9.51	-1.46962
30	118392	9.61	-1.39679
30	119781	9.71	-1.25878
30	121170	9.81	-1.0661
30	122559	9.91	-0.829229
30	123960	10.01	-0.55853
30	125349	10.11	-0.264039
30	126738	10.21	0.0394309
30	128127	10.31	0.301825
30	129516	10.41	0.517079
30	130905	10.51	0.693662
30	132294	10.61	0.838522
30	133683	10.71	0.957358
30	135072	10.81	1.05484
30	136461	10.91	1.13482
30	137862	11.01	1.20042
30	139251	11.11	1.25424
30	140640	11.21	1.29839
30	142029	11.31	1.33461
30	143418	11.41	1.36432
30	144807	11.51	1.3887
30	146196	11.61	1.40869
30	147585	11.71	1.4251
30	148974	11.81	1.43855
30	150363	11.91	1.43456
30	151764	12.01	1.36235
30	153153	12.11	1.22999
30	154542	12.21	1.04615
30	155931	12.31	0.819673
30	157320	12.41	0.559519
30	158709	12.51	0.274538
30	160098	12.61	-0.0223415
30	161487	12.71	-0.287805
30	162876	12.81	-0.505578
30	164265	12.91	-0.684228
30	165666	13.01	-0.830783
30	167055	13.11	-0.951009
30	168444	13.21	-1.04964
30	169833	13.31	-1.13054
30	171222	13.41	-1.19692
30	172611	13.51	-1.25137
30	174000	13.61	-1.29603
30	175389	13.71	-1.33268
30	176778	13.81	-1.36274
30	178167	13.91	-1.3874
30	179568	14.01	-1.40763
30	180957	14.11	-1.42422
30	182346	14.21	-1.43783
30	183735	14.31	-1.449
30	185124	14.41	-1.45426
30	186513	14.51	-1.40674
30	187902	14.61	-1.29386
30	189291	14.71	-1.12484
30	190680	14.81	-0.909123
30	192069	14.91	-0.656177
30	193470	15.01	-0.37539
30	194859	15.11	-0.0780586
30	196248	15.21	0.205442
30	197637	15.31	0.438012
30	199026	15.41	0.6288
30	200415	15.51	0.785312
30	201804	15.61	0.913707
30	203193	15.71	1.01904
30	204582	15.81	1.10544
30	205971	15.91	1.17632
30	207372	16.01	1.23447
30	208761	16.11	1.28218
30	210150	16.21	1.32131
30	211539	16.31	1.35341
30	212928	16.41	1.37975
30	214317	16.51	1.40135
30	215706	16.61	1.41907
30	217095	16.71	1.43361
30	218484	16.81	1.44554
30	219873	16.91	1.4503
30	221274	17.01	1.39356
30	222663	17.11	1.27333
30	224052	17.21	1.09867
30	225441	17.31	0.878789
30	226830	17.41	0.622979
30	228219	17.51	0.340424
30	229608	17.61	0.0430294
30	230997	17.71	-0.234178
30	232386	17.81	-0.461585
30	233775	17.91	-0.648138
30	235176	18.01	-0.801177
30	236565	18.11	-0.926722
30	237954	18.21	-1.02971
30	239343	18.31	-1.1142
30	240732	18.41	-1.18351
30	242121	18.51	-1.24037
30	243510	18.61	-1.28701
30	244899	18.71	-1.32527
30	246288	18.81	-1.35666
30	247677	18.91	-1.38242
30	249078	19.01	-1.40354
30	250467	19.11	-1.42087
30	251856	19.21	-1.43508
30	253245	19.31	-1.44675
30	254634	19.41	-1.45172
30	256023	19.51	-1.39839
30	257412	19.61	-1.2809
30	258801	19.71	-1.10833
30	260190	19.81	-0.889996
30	261579	19.91	-0.635245
30	262980	20.01	-0.353353
30	264369	20.11	-0.0559802
30	265758	20.21	0.223554
30	267147	20.31	0.45287
30	268536	20.41	0.640989
30	269925	20.51	0.795311
30	271314	20.61	0.92191
30	272703	20.71	1.02576
30	274092	20.81	1.11096
30	275481	20.91	1.18085
30	276882	21.01	1.23819
30	278271	21.11	1.28522
30	279660	21.21	1.32381
30	281049	21.31	1.35546
30	282438	21.41	1.38143
30	283827	21.51	1.40273
30	285216	21.61	1.4202
30	286605	21.71	1.43454
30	287994	21.81	1.4463
30	289383	21.91	1.4512
30	290784	22.01	1.39661
30	292173	22.11	1.2781
30	293562	22.21	1.10476
30	294951	22.31	0.885844
30	296340	22.41	0.630704
30	297729	22.51	0.34856
30	299118	22.61	0.051183
30	300507	22.71	-0.22749
30	301896	22.81	-0.456098
30	303285	22.91	-0.643637
30	304686	23.01	-0.797484
30	306075	23.11	-0.923692
30	307464	23.21	-1.02723
30	308853	23.31	-1.11216
30	310242	23.41	-1.18184
30	311631	23.51	-1.239
30	313020	23.61	-1.28589
30	314409	23.71	-1.32435
30	315798	23.81	-1.35591
30	317187	23.91	-1.38179
30	318588	24.01	-1.40303
30	319977	24.11	-1.42045
30	321366	24.21	-1.43474
30	322755	24.31	-1.44647
30	324144	24.41	-1.45139
30	325533	24.51	-1.39727
30	326922	24.61	-1.27914
30	328311	24.71	-1.10608
30	329700	24.81	-0.887388
30	331089	24.91	-0.632388
30	332490	25.01	-0.350343
30	333879	25.11	-0.0529625
30	335268	25.21	0.22603
30	336657	25.31	0.454901
30	338046	25.41	0.642655
30	339435	25.51	0.796678
30	340824	25.61	0.923031
30	342213	25.71	1.02668
30	343602	25.81	1.11172
30	344991	25.91	1.18147
30	346392	26.01	1.2387
30	347781	26.11	1.28564
30	349170	26.21	1.32415
30	350559	26.31	1.35574
30	351948	26.41	1.38166
30	353337	26.51	1.40292
30	354726	26.61	1.42036
30	356115	26.71	1.43467
30	357504	26.81	1.4464
30	358893	26.91	1.45132
30	360294	27.01	1.39703
30	361683	27.11	1.27875
30	363072	27.21	1.10559
30	364461	27.31	0.886811
30	365850	27.41	0.631764
30	367239	27.51	0.349677
30	368628	27.61	0.0523027
29	334	1.11	245.75
29	1722	1.21	245.75
29	3109	1.31	245.75
29	4497	1.41	245.75
29	5884	1.51	245.75
29	7271	1.61	245.75
29	8657	1.71	245.75
29	10044	1.81	245.75
29	11430	1.91	245.75
29	12831	2.01	245.75
29	14217	2.11	245.75
29	15603	2.21	245.75
29	16989	2.31	245.75
29	18375	2.41	245.75
29	19761	2.51	245.75
29	21147	2.61	245.75
29	22533	2.71	245.75
29	23919	2.81	245.75
29	25305	2.91	245.75
29	26703	3.01	245.75
29	28089	3.11	245.75
29	29475	3.21	245.75
29	30861	3.31	245.75
29	32247	3.41	245.75
29	33633	3.51	245.75
29	35019	3.61	245.75
29	36405	3.71	245.75
29	37791	3.81	245.75
29	39177	3.91	245.75
29	40575	4.01	245.75
29	41961	4.11	245.75
29	43347	4.21	245.75
29	44733	4.31	245.75
29	46119	4.41	245.75
29	47505	4.51	245.75
29	48891	4.61	245.75
29	50277	4.71	245.75
29	51663	4.81	245.75
29	53049	4.91	245.75
29	54450	5.01	245.75
29	55839	5.11	245.75
29	57228	5.21	245.75
29	58617	5.31	245.75
29	60006	5.41	245.75
29	61395	5.51	245.75
29	62784	5.61	245.75
29	64173	5.71	245.75
29	65562	5.81	245.75
29	66951	5.91	245.75
29	68352	6.01	245.75
29	69741	6.11	245.75
29	71130	6.21	245.75
29	72519	6.31	245.75
29	73908	6.41	245.75
29	75297	6.51	245.75
29	76686	6.61	245.75
29	78075	6.71	245.75
29	79464	6.81	245.75
29	80853	6.91	245.75
29	82254	7.01	245.75
29	83643	7.11	245.75
29	85032	7.21	245.75
29	86421	7.31	245.75
29	87810	7.41	245.75
29	89199	7.51	245.75
29	90588	7.61	245.75
29	91977	7.71	245.75
29	93366	7.81	245.75
29	94755	7.91	245.75
29	96156	8.01	245.75
29	97545	8.11	245.75
29	98934	8.21	245.75
29	100323	8.31	245.75
29	101712	8.41	245.75
29	103101	8.51	245.75
29	104490	8.61	245.75
29	105879	8.71	245.75
29	107268	8.81	245.75
29	108657	8.91	245.75
29	110058	9.01	245.75
29	111447	9.11	245.75
29	112836	9.21	245.75
29	114225	9.31	245.75
29	115614	9.41	245.75
29	117003	9.51	245.75
29	118392	9.61	245.75
29	119781	9.71	245.75
29	121170	9.81	245.75
29	122559	9.91	245.75
29	123960	10.01	245.75
29	125349	10.11	245.75
29	126738	10.21	245.75
29	128127	10.31	245.75
29	129516	10.41	245.75
29	130905	10.51	245.75
29	132294	10.61	245.75
29	133683	10.71	245.75
29	135072	10.81	245.75
29	136461	10.91	245.75
29	137862	11.01	245.75
29	139251	11.11	245.75
29	140640	11.21	245.75
29	142029	11.31	245.75
29	143418	11.41	245.75
29	144807	11.51	245.75
29	146196	11.61	245.75
29	147585	11.71	245.75
29	148974	11.81	245.75
29	150363	11.91	245.75
29	151764	12.01	245.75
29	153153	12.11	245.75
29	154542	12.21	245.75
29	155931	12.31	245.75
29	157320	12.41	245.75
29	158709	12.51	245.75
29	160098	12.61	245.75
29	161487	12.71	245.75
29	162876	12.81	245.75
29	164265	12.91	245.75
29	165666	13.01	245.75
29	167055	13.11	245.75
29	168444	13.21	245.75
29	169833	13.31	245.75
29	171222	13.41	245.75
29	172611	13.51	245.75
29	174000	13.61	245.75
29	175389	13.71	245.75
29	176778	13.81	245.75
29	178167	13.91	245.75
29	179568	14.01	245.75
29	180957	14.11	245.75
29	182346	14.21	245.75
29	183735	14.31	245.75
29	185124	14.41	245.75
29	186513	14.51	245.75
29	187902	14.61	245.75
29	189291	14.71	245.75
29	190680	14.81	245.75
29	192069	14.91	245.75
29	193470	15.01	245.75
29	194859	15.11	245.75
29	196248	15.21	245.75
29	197637	15.31	245.75
29	199026	15.41	245.75
29	200415	15.51	245.75
29	201804	15.61	245.75
29	203193	15.71	245.75
29	204582	15.81	245.75
29	205971	15.91	245.75
29	207372	16.01	245.75
29	208761	16.11	245.75
29	210150	16.21	245.75
29	211539	16.31	245.75
29	212928	16.41	245.75
29	214317	16.51	245.75
29	215706	16.61	245.75
29	217095	16.71	245.75
29	218484	16.81	245.75
29	219873	16.91	245.75
29	221274	17.01	245.75
29	222663	17.11	245.75
29	224052	17.21	245.75
29	225441	17.31	245.75
29	226830	17.41	245.75
29	228219	17.51	245.75
29	229608	17.61	245.75
29	230997	17.71	245.75
29	232386	17.81	245.75
29	233775	17.91	245.75
29	235176	18.01	245.75
29	236565	18.11	245.75
29	237954	18.21	245.75
29	239343	18.31	245.75
29	240732	18.41	245.75
29	242121	18.51	245.75
29	243510	18.61	245.75
29	244899	18.71	245.75
29	246288	18.81	245.75
29	247677	18.91	245.75
29	249078	19.01	245.75
29	250467	19.11	245.75
29	251856	19.21	245.75
29	253245	19.31	245.75
29	254634	19.41	245.75
29	256023	19.51	245.75
29	257412	19.61	245.75
29	258801	19.71	245.75
29	260190	19.81	245.75
29	261579	19.91	245.75
29	262980	20.01	245.75
29	264369	20.11	245.75
29	265758	20.21	245.75
29	267147	20.31	245.75
29	268536	20.41	245.75
29	269925	20.51	245.75
29	271314	20.61	245.75
29	272703	20.71	245.75
29	274092	20.81	245.75
29	275481	20.91	245.75
29	276882	21.01	245.75
29	278271	21.11	245.75
29	279660	21.21	245.75
29	281049	21.31	245.75
29	282438	21.41	245.75
29	283827	21.51	245.75
29	285216	21.61	245.75
29	286605	21.71	245.75
29	287994	21.81	245.75
29	289383	21.91	245.75
29	290784	22.01	245.75
29	292173	22.11	245.75
29	293562	22.21	245.75
29	294951	22.31	245.75
29	296340	22.41	245.75
29	297729	22.51	245.75
29	299118	22.61	245.75
29	300507	22.71	245.75
29	301896	22.81	245.75
29	303285	22.91	245.75
29	304686	23.01	245.75
29	306075	23.11	245.75
29	307464	23.21	245.75
29	308853	23.31	245.75
29	310242	23.41	245.75
29	311631	23.51	245.75
29	313020	23.61	245.75
29	314409	23.71	245.75
29	315798	23.81	245.75
29	317187	23.91	245.75
29	318588	24.01	245.75
29	319977	24.11	245.75
29	321366	24.21	245.75
29	322755	24.31	245.75
29	324144	24.41	245.75
29	325533	24.51	245.75
29	326922	24.61	245.75
29	328311	24.71	245.75
29	329700	24.81	245.75
29	331089	24.91	245.75
29	332490	25.01	245.75
29	333879	25.11	245.75
29	335268	25.21	245.75
29	336657	25.31	245.75
29	338046	25.41	245.75
29	339435	25.51	245.75
29	340824	25.61	245.75
29	342213	25.71	245.75
29	343602	25.81	245.75
29	344991	25.91	245.75
29	346392	26.01	245.75
29	347781	26.11	245.75
29	349170	26.21	245.75
29	350559	26.31	245.75
29	351948	26.41	245.75
29	353337	26.51	245.75
29	354726	26.61	245.75
29	356115	26.71	245.75
29	357504	26.81	245.75
29	358893	26.91	245.75
29	360294	27.01	245.75
29	361683	27.11	245.75
29	363072	27.21	245.75
29	364461	27.31	245.75
29	365850	27.41	245.75
29	367239	27.51	245.75
29	368628	27.61	245.75
28	334	1.11	50.6002
28	1722	1.21	53.3782
28	3109	1.31	56.1562
28	4497	1.41	58.9342
28	5884	1.51	61.7121
28	7271	1.61	64.4901
28	8657	1.71	67.268
28	10044	1.81	70.046
28	11430	1.91	72.8239
28	12831	2.01	75.6018
28	14217	2.11	78.3797
28	15603	2.21	81.1575
28	16989	2.31	83.9354
28	18375	2.41	86.7132
28	19761	2.51	89.4911
28	21147	2.61	92.2689
28	22533	2.71	95.0467
28	23919	2.81	97.8245
28	25305	2.91	100.602
28	26703	3.01	103.38
28	28089	3.11	106.158
28	29475	3.21	108.936
28	30861	3.31	111.714
28	32247	3.41	114.491
28	33633	3.51	117.269
28	35019	3.61	120.047
28	36405	3.71	122.825
28	37791	3.81	125.602
28	39177	3.91	128.38
28	40575	4.01	131.158
28	41961	4.11	133.936
28	43347	4.21	136.713
28	44733	4.31	139.491
28	46119	4.41	142.269
28	47505	4.51	145.047
28	48891	4.61	147.825
28	50277	4.71	150.602
28	51663	4.81	153.38
28	53049	4.91	156.158
28	54450	5.01	158.936
28	55839	5.11	161.713
28	57228	5.21	164.491
28	58617	5.31	167.27
28	60006	5.41	170.051
28	61395	5.51	172.835
28	62784	5.61	175.625
28	64173	5.71	178.421
28	65562	5.81	181.226
28	66951	5.91	184.041
28	68352	6.01	186.866
28	69741	6.11	189.703
28	71130	6.21	192.551
28	72519	6.31	195.412
28	73908	6.41	198.286
28	75297	6.51	201.173
28	76686	6.61	204.074
28	78075	6.71	206.989
28	79464	6.81	209.917
28	80853	6.91	212.857
28	82254	7.01	215.808
28	83643	7.11	218.768
28	85032	7.21	221.735
28	86421	7.31	224.707
28	87810	7.41	227.681
28	89199	7.51	230.655
28	90588	7.61	233.625
28	91977	7.71	236.59
28	93366	7.81	239.548
28	94755	7.91	242.498
28	96156	8.01	245.438
28	97545	8.11	248.367
28	98934	8.21	251.285
28	100323	8.31	254.191
28	101712	8.41	257.085
28	103101	8.51	259.965
28	104490	8.61	262.832
28	105879	8.71	265.685
28	107268	8.81	268.525
28	108657	8.91	271.35
28	110058	9.01	274.161
28	111447	9.11	276.958
28	112836	9.21	279.74
28	114225	9.31	282.508
28	115614	9.41	285.261
28	117003	9.51	287.999
28	118392	9.61	290.723
28	119781	9.71	293.433
28	121170	9.81	296.13
28	122559	9.91	298.817
28	123960	10.01	301.496
28	125349	10.11	304.169
28	126738	10.21	306.84
28	128127	10.31	309.512
28	129516	10.41	312.186
28	130905	10.51	314.866
28	132294	10.61	317.553
28	133683	10.71	320.248
28	135072	10.81	322.953
28	136461	10.91	325.668
28	137862	11.01	328.395
28	139251	11.11	331.133
28	140640	11.21	333.885
28	142029	11.31	336.649
28	143418	11.41	339.427
28	144807	11.51	342.218
28	146196	11.61	345.023
28	147585	11.71	347.843
28	148974	11.81	350.676
28	150363	11.91	353.524
28	151764	12.01	356.386
28	153153	12.11	359.262
28	154542	12.21	362.15
28	155931	12.31	365.048
28	157320	12.41	367.954
28	158709	12.51	370.866
28	160098	12.61	373.78
28	161487	12.71	376.694
28	162876	12.81	379.605
28	164265	12.91	382.51
28	165666	13.01	385.409
28	167055	13.11	388.3
28	168444	13.21	391.181
28	169833	13.31	394.051
28	171222	13.41	396.91
28	172611	13.51	399.757
28	174000	13.61	402.592
28	175389	13.71	405.413
28	176778	13.81	408.222
28	178167	13.91	411.016
28	179568	14.01	413.797
28	180957	14.11	416.564
28	182346	14.21	419.316
28	183735	14.31	422.054
28	185124	14.41	424.778
28	186513	14.51	427.487
28	187902	14.61	430.182
28	189291	14.71	432.864
28	190680	14.81	435.535
28	192069	14.91	438.198
28	193470	15.01	440.854
28	194859	15.11	443.506
28	196248	15.21	446.158
28	197637	15.31	448.812
28	199026	15.41	451.47
28	200415	15.51	454.134
28	201804	15.61	456.807
28	203193	15.71	459.489
28	204582	15.81	462.181
28	205971	15.91	464.884
28	207372	16.01	467.599
28	208761	16.11	470.326
28	210150	16.21	473.066
28	211539	16.31	475.819
28	212928	16.41	478.586
28	214317	16.51	481.366
28	215706	16.61	484.161
28	217095	16.71	486.97
28	218484	16.81	489.793
28	219873	16.91	492.631
28	221274	17.01	495.483
28	222663	17.11	498.348
28	224052	17.21	501.227
28	225441	17.31	504.116
28	226830	17.41	507.014
28	228219	17.51	509.918
28	229608	17.61	512.825
28	230997	17.71	515.733
28	232386	17.81	518.638
28	233775	17.91	521.538
28	235176	18.01	524.432
28	236565	18.11	527.317
28	237954	18.21	530.194
28	239343	18.31	533.06
28	240732	18.41	535.915
28	242121	18.51	538.758
28	243510	18.61	541.589
28	244899	18.71	544.406
28	246288	18.81	547.211
28	247677	18.91	550.002
28	249078	19.01	552.779
28	250467	19.11	555.542
28	251856	19.21	558.291
28	253245	19.31	561.025
28	254634	19.41	563.745
28	256023	19.51	566.451
28	257412	19.61	569.143
28	258801	19.71	571.822
28	260190	19.81	574.49
[...]
267	247141	18.855201886887	0.100023917288
267	248530	18.955264802211	0.100062915324
267	249931	19.055197715174	0.099932912963
267	251320	19.155234625407	0.100036910233
267	252709	19.255167532569	0.099932907162
267	254098	19.355256436355	0.100088903786
267	255487	19.455202336507	0.099945900152
267	256876	19.555174232842	0.099971896335
267	258265	19.655237125269	0.100062892427
267	259654	19.755235013811	0.099997888542
267	261043	19.8551938986	0.099958884789
267	262432	19.955230779893	0.100036881293
267	263833	20.055176658054	0.099945878161
267	265222	20.155174533553	0.099997875499
267	266611	20.255224406943	0.10004987339
267	268000	20.355235278841	0.100010871898
267	269389	20.455168149899	0.099932871058
267	270778	20.555179020779	0.10001087088
267	272167	20.655241892136	0.100062871357
267	273556	20.755252764589	0.100010872453
267	274945	20.855211638703	0.099958874114
267	276334	20.955261514985	0.100049876282
267	277735	21.055220393859	0.099958878874
267	279124	21.155244275676	0.100023881817
267	280513	21.255242160705	0.099997885029
267	281902	21.355214049156	0.099971888451
267	283291	21.455263941187	0.100049892031
267	284680	21.55517083691	0.099906895723
267	286069	21.655233736406	0.100062899496
267	287458	21.755257639722	0.100023903316
267	288847	21.855242546889	0.099984907167
267	290236	21.955214457912	0.099971911023
267	291637	22.055173372786	0.099958914874
267	293026	22.155236291472	0.100062918686
267	294415	22.255182213915	0.099945922443
267	295804	22.355258140023	0.100075926108
267	297193	22.455243069663	0.09998492964
267	298582	22.555189002676	0.099945933013
267	299971	22.655199938849	0.100010936173
267	301360	22.755223877936	0.100023939087
267	302749	22.85519581965	0.099971941714
267	304138	22.955219763674	0.100023944024
267	305539	23.055217709654	0.09999794598
267	306928	23.155189657209	0.099971947555
267	308317	23.255200605935	0.100010948726
267	309706	23.355211555405	0.10001094947
267	311095	23.455235505176	0.100023949771
267	312484	23.555207454785	0.099971949609
267	313873	23.65516640377	0.099958948985
267	315262	23.755190351669	0.100023947899
267	316651	23.855162298039	0.09997194637
267	318040	23.955173242454	0.100010944415
267	319441	24.055223184515	0.100049942061
267	320830	24.155260123846	0.100036939331
267	322219	24.255219060102	0.099958936256
267	323608	24.355164992973	0.099945932871
267	324997	24.455201922175	0.100036929202
267	326386	24.555264847491	0.100062925316
267	327775	24.655223768787	0.099958921296
267	329164	24.755221686033	0.099997917246
267	330553	24.855167599318	0.099945913285
267	331942	24.95520450885	0.100036909532
267	333343	25.055176414957	0.099971906107
267	334732	25.155226318077	0.10004990312
267	336121	25.255224218742	0.099997900665
267	337510	25.355170117552	0.09994589881
267	338899	25.455207015154	0.100036897602
267	340288	25.555256912212	0.100049897058
267	341677	25.655254809388	0.099997897176
267	343066	25.755252707315	0.099997897927
267	344455	25.855237606584	0.099984899269
267	345844	25.955235507711	0.099997901127
267	347245	26.055168411147	0.099932903436
267	348634	26.155192317261	0.100023906114
267	350023	26.255216226343	0.100023909082
267	351412	26.355240138617	0.100023912274
267	352801	26.455212054247	0.09997191563
267	354190	26.55526197336	0.100049919113
267	355579	26.655246896047	0.099984922687
267	356968	26.755257822359	0.100010926312
267	358357	26.855229752335	0.099971929976
267	359746	26.955162685983	0.099932933648
267	361147	27.055238623298	0.100075937315
267	362536	27.155210564249	0.099971940951
267	363925	27.255169508781	0.099958944532
267	365314	27.355245456802	0.100075948021
267	366703	27.455256408184	0.100010951382
267	368092	27.555189362766	0.099932954582
266	2325	1.253114484387	9
266	3712	1.353125353191	9
266	5100	1.45312322199	9
266	6487	1.55312109078	9
266	7873	1.653118959562	9
266	9260	1.753116828339	9
266	10646	1.85311469711	9
266	12033	1.953125565871	9
266	13433	2.053123434627	9
266	14819	2.153121303374	9
266	16205	2.253119172115	9
266	17591	2.353117040849	9
266	18977	2.453114909575	9
266	20363	2.553125778295	9
266	21749	2.653123647007	9
266	23135	2.753121515712	9
266	24521	2.853119384412	9
266	25907	2.953117253104	9
266	27305	3.053115121792	9
266	28691	3.153125990478	9
266	30077	3.253123859156	9
266	31463	3.353121727827	9
266	32849	3.453119596493	9
266	34235	3.553117465154	9
266	35621	3.653115333813	9
266	37007	3.753126202468	9
266	38393	3.853124071121	9
266	39779	3.953121939771	9
266	41177	4.053119808416	9
266	42563	4.153117677057	9
266	43949	4.253115545695	9
266	45335	4.353126414332	9
266	46721	4.453124282963	9
266	48107	4.553122151592	9
266	49493	4.653120020219	9
266	50879	4.753117888844	9
266	52265	4.853115757462	9
266	53651	4.953113626079	9
266	55052	5.053124494693	9
266	56441	5.153122363303	9
266	57830	5.253120231911	9
266	59219	5.353118100526	9
266	60608	5.453115969168	9
266	61997	5.553113837878	9
266	63386	5.653124706711	9
266	64775	5.753122575746	9
266	66164	5.853120445078	9
266	67553	5.953118314822	9
266	68954	6.053116185102	9
266	70343	6.153114056052	9
266	71732	6.253124927812	9
266	73121	6.353122800524	9
266	74510	6.453120674324	9
266	75899	6.553118549346	9
266	77288	6.653116425708	9
266	78677	6.753114303514	9
266	80066	6.85312518284	9
266	81455	6.953123063734	9
266	82856	7.053120946206	9
266	84251	7.153118830223	9
266	85640	7.253116715715	9
266	87029	7.353114602563	9
266	88418	7.453125490601	9
266	89807	7.553123379622	9
266	91196	7.653121269368	9
266	92585	7.753119159552	9
266	93974	7.853117049847	9
266	95363	7.953114939895	9
266	96764	8.053125829314	9
266	98153	8.153123717703	9
266	99542	8.25312160465	9
266	100937	8.353119489745	9
266	102326	8.453117372577	9
266	103715	8.553115252746	9
266	105104	8.653126129883	9
266	106493	8.753124003661	9
266	107882	8.853121873802	9
266	109271	8.953119740099	9
266	110672	9.053117602418	9
266	112061	9.153115460699	9
266	113450	9.253126314972	9
266	114839	9.353124165333	9
266	116228	9.453122011958	9
266	117611	9.553119855082	9
266	119000	9.653117694998	9
266	120389	9.753115532049	9
266	121778	9.853126366617	9
266	123167	9.953124199119	9
266	124568	10.053122030004	9
266	125951	10.153119859732	9
266	127340	10.253117688777	9
266	128729	10.353115517609	9
266	130118	10.453126346691	9
266	131507	10.55312417646	9
266	132896	10.653122007334	9
266	134285	10.753119839691	9
266	135674	10.853117673874	9
266	137063	10.953115510178	9
266	138464	11.05312634886	9
266	139853	11.153124190133	9
266	141242	11.253122034159	9
266	142631	11.353119881068	9
266	144020	11.453117730947	9
266	145409	11.553115583854	9
266	146798	11.653126439821	9
266	148187	11.753124298862	9
266	149576	11.853122160973	9
266	150965	11.953120026133	9
266	152366	12.053117894314	9
266	153755	12.153115765469	9
266	155144	12.253113639526	9
266	156539	12.353124516391	9
266	157928	12.453122395936	9
266	159317	12.553120278	9
266	160706	12.65311816238	9
266	162095	12.753116048838	9
266	163484	12.853113937096	9
266	164873	12.953124826839	9
266	166274	13.05312271772	9
266	167663	13.15312060937	9
266	169052	13.253118501389	9
266	170441	13.353116393353	9
266	171830	13.453114284823	9
266	173219	13.553125175341	9
266	174608	13.653123064449	9
266	176003	13.753120951692	9
266	177392	13.853118836623	9
266	178781	13.953116718819	9
266	180182	14.053114597892	9
266	181571	14.153125473503	9
266	182960	14.253123345386	9
266	184349	14.353121213349	9
266	185738	14.453119077289	9
266	187127	14.553116937194	9
266	188516	14.653114793147	9
266	189905	14.753125645333	9
266	191294	14.853123494039	9
266	192683	14.953121339638	9
266	194078	15.053119182594	9
266	195467	15.153117023437	9
266	196856	15.253114862754	9
266	198239	15.353125701171	9
266	199628	15.45312353932	9
266	201017	15.553121377834	9
266	202406	15.653119217317	9
266	203795	15.753117058335	9
266	205184	15.853114901399	9
266	206573	15.953125746952	9
266	207974	16.053123595358	9
266	209363	16.153121446917	9
266	210752	16.253119301852	9
266	212141	16.353117160339	9
266	213530	16.453115022502	9
266	214919	16.553125888428	9
266	216308	16.653123758178	9
266	217697	16.753121631786	9
266	219092	16.853119509266	9
266	220481	16.953117390617	9
266	221882	17.053115275818	9
266	223271	17.153126164835	9
266	224660	17.253124057616	9
266	226049	17.353121954073	9
266	227438	17.453119854094	9
266	228827	17.553117757525	9
266	230222	17.653115664176	9
266	231611	17.753113573817	9
266	233000	17.853124486176	9
266	234389	17.953122400948	9
266	235790	18.053120317788	9
266	237179	18.153118236327	9
266	238568	18.253116156168	9
266	239957	18.353114076892	9
266	241346	18.453124998061	9
266	242735	18.553122919211	9
266	244124	18.653120839874	9
266	245513	18.753118759577	9
266	246902	18.853116677856	9
266	248291	18.953114594265	9
266	249692	19.053125508379	9
266	251081	19.153123419798	9
266	252470	19.253121328151	9
266	253859	19.353119233106	9
266	255248	19.453117134383	9
266	256637	19.553115031777	9
266	258026	19.653125925179	9
266	259415	19.753123814591	9
266	260804	19.853121700135	9
266	262193	19.95311958205	9
266	263594	20.053117460691	9
266	264983	20.153115336519	9
266	266372	20.253126210086	9
266	267761	20.353124082004	9
266	269150	20.453121952934	9
266	270539	20.553119823549	9
266	271928	20.653117694511	9
266	273317	20.753115566458	9
266	274706	20.853126439973	9
266	276095	20.953124315576	9
266	277496	21.053122193707	9
266	278885	21.153120074727	9
266	280274	21.253117958918	9
266	281663	21.353115846495	9
266	283052	21.453113737622	9
266	284441	21.553124632416	9
266	285830	21.653122530963	9
266	287219	21.753120433316	9
266	288608	21.853118339504	9
266	289997	21.95311624954	9
266	291398	22.053114163418	9
266	292787	22.153125081113	9
266	294176	22.253123002575	9
266	295565	22.353120927729	9
266	296954	22.453118856463	9
266	298343	22.553116788631	9
266	299732	22.653114724044	9
266	301121	22.753125662473	9
266	302510	22.853123603651	9
266	303899	22.953121547272	9
266	305300	23.053119492995	9
266	306689	23.153117440448	9
266	308078	23.253115389235	9
266	309467	23.353126338935	9
266	310856	23.453124289108	9
266	312245	23.553122239294	9
266	313634	23.653120189019	9
266	315023	23.753118137809	9
266	316412	23.853116085194	9
266	317801	23.953114030724	9
266	319202	24.053124973969	9
266	320591	24.153122914522	9
266	321980	24.253120852009	9
266	323369	24.35311878609	9
266	324758	24.453116716461	9
266	326147	24.55311464288	9
266	327536	24.653125565193	9
266	328925	24.753123483355	9
266	330314	24.853121397435	9
266	331703	24.953119307631	9
266	333104	25.053117214257	9
266	334493	25.153115117745	9
266	335882	25.253126018621	9
266	337271	25.353123917485	9
266	338660	25.453121814991	9
266	340049	25.553119711812	9
266	341438	25.653117608624	9
266	342827	25.753115506075	9
266	344216	25.85312640477	9
266	345605	25.953124305245	9
266	347006	26.053122207966	9
266	348395	26.153120113309	9
266	349784	26.253118021577	9
266	351173	26.353115933002	9
266	352562	26.453113847754	9
266	353951	26.553124765965	9
266	355340	26.653122687726	9
266	356729	26.753120613101	9
266	358118	26.853118542122	9
266	359507	26.953116474808	9
266	360908	27.053114411153	9
266	362297	27.153125351136	9
266	363686	27.253123294712	9
266	365075	27.353121241804	9
266	366464	27.453119192303	9
266	367853	27.553117146066	9
265	2576	1.255251678288	9
265	3963	1.355249547092	9
265	5351	1.455169415889	9
265	6738	1.555245284679	9
265	8124	1.655217153461	9
265	9511	1.755241022237	9
265	10897	1.855173891007	9
265	12284	1.955197759768	9
265	13684	2.055169628522	9
265	15070	2.155206497268	9
265	16456	2.255217366009	9
265	17842	2.355202234741	9
265	19228	2.455174103467	9
265	20614	2.555171972185	9
265	22000	2.655169840897	9
265	23386	2.755193709601	9
265	24772	2.8552305783	9
265	26158	2.955176446993	9
265	27556	3.055252315681	9
265	28942	3.155185184365	9
265	30328	3.255196053043	9
265	31714	3.355193921714	9
265	33100	3.45517879038	9
265	34486	3.555228659042	9
265	35872	3.655174527701	9
265	37258	3.755224396356	9
265	38644	3.855235265009	9
265	40030	3.955220133658	9
265	41428	4.055218002303	9
265	42814	4.155202870944	9
265	44200	4.255200739583	9
265	45586	4.355172608219	9
265	46972	4.45522247685	9
265	48358	4.55516834548	9
265	49744	4.655192214107	9
265	51130	4.755216082732	9
265	52516	4.85520095135	9
265	53902	4.955237819967	9
265	55303	5.05524868858	9
265	56692	5.155194557191	9
265	58081	5.255192425802	9
265	59470	5.355190294429	9
265	60859	5.455188163101	9
265	62248	5.55526403187	9
265	63637	5.655209900803	9
265	65026	5.755259769986	9
265	66415	5.855205639526	9
265	67804	5.95516450954	9
265	69205	6.055188380156	9
265	70594	6.155238251508	9
265	71983	6.255184123736	9
265	73372	6.35524699698	9
265	74761	6.455244871369	9
265	76150	6.555203747029	9
265	77539	6.655253624075	9
265	78928	6.755212502594	9
265	80317	6.855184382656	9
265	81706	6.955169264291	9
265	83107	7.055206147495	9
265	84496	7.15523003222	9
265	85885	7.255214918373	9
265	87274	7.35519980582	9
265	88663	7.455262694374	9
265	90052	7.555234583806	9
265	91441	7.655219473845	9
265	92830	7.755217364188	9
265	94219	7.855163254496	9
265	95608	7.955239144405	9
265	97009	8.055198033528	9
265	98398	8.155195921469	9
265	99787	8.255232807827	9
265	101176	8.355256692207	9
265	102565	8.455228574214	9
265	103954	8.555239453475	9
265	105343	8.655172329644	9
265	106732	8.755183202417	9
265	108121	8.855207071542	9
265	109510	8.955165936835	9
265	110911	9.055241798181	9
265	112300	9.155252655536	9
265	113689	9.255224508941	9
265	115078	9.355248358502	9
265	116467	9.455168204397	9
265	117856	9.555244046861	9
265	119245	9.655189886186	9
265	120634	9.755174722714	9
265	122023	9.85518555683	9
265	123412	9.955261388957	9
265	124813	10.055194219546	9
265	126202	10.155257049063	9
265	127591	10.255189877992	9
265	128980	10.35521370681	9
265	130369	10.45518553598	9
265	131758	10.555183365943	9
265	133147	10.655246197114	9
265	134536	10.755166029871	9
265	135925	10.855189864546	9
265	137314	10.955265701427	9
265	138715	11.055237540764	9
265	140104	11.155209382755	9
265	141493	11.255207227558	9
265	142882	11.355166075287	9
265	144271	11.455202926022	9
265	145660	11.555265779817	9
265	147049	11.655198636694	9
265	148438	11.755248496668	9
265	149827	11.855220359728	9
265	151216	11.955244225851	9
265	152617	12.055242095002	9
265	154006	12.155239967124	9
265	155395	12.255185842134	9
265	156784	12.355248719922	9
265	158173	12.455246600341	9
265	159562	12.555205483212	9
265	160951	12.655255368313	9
265	162340	12.755162255383	9
265	163729	12.855186144129	9
265	165118	12.955184034225	9
265	166519	13.055220925311	9
265	167908	13.155231817009	9
265	169297	13.255203708914	9
265	170686	13.355162600593	9
265	172075	13.455186491609	9
265	173464	13.555236381513	9
265	174853	13.655221269859	9
265	176242	13.755193156212	9
265	177631	13.855256040151	9
265	179020	13.95524092128	9
265	180421	14.055199799237	9
265	181810	14.155184673716	9
265	183199	14.255260544475	9
265	184588	14.355193411348	9
265	185977	14.45517827425	9
265	187366	14.555202133186	9
265	188755	14.655173988256	9
265	190144	14.755184839661	9
265	191533	14.855221687699	9
265	192922	14.955232532754	9
265	194323	15.055243375301	9
265	195712	15.155228215877	9
265	197101	15.255252055075	9
265	198490	15.355236893517	9
265	199879	15.455169731834	9
265	201268	15.555219570649	9
265	202657	15.655217410554	9
265	204046	15.755215252103	9
265	205435	15.855200095791	9
265	206824	15.955184942045	9
265	208225	16.055260791217	9
265	209614	16.155245643591	9
265	211003	16.255230499388	9
265	212392	16.355202358769	9
265	213781	16.455265221855	9
265	215170	16.555198088728	9
265	216559	16.655195959444	9
265	217948	16.755258834035	9
265	219337	16.855165712512	9
265	220726	16.955228594868	9
265	222127	17.055252481081	9
265	223516	17.15526337111	9
265	224905	17.255196264888	9
265	226294	17.355259162314	9
265	227683	17.455231063259	9
265	229072	17.555228967549	9
265	230461	17.655187874977	9
265	231850	17.75522478529	9
265	233239	17.855183698201	9
265	234628	17.955207613389	9
265	236029	18.0552445305	9
265	237418	18.155229449154	9
265	238807	18.255188368947	9
265	240196	18.355199289456	9
265	241585	18.455171210235	9
265	242974	18.555234130824	9
265	244363	18.655167050764	9
265	245752	18.755177969599	9
265	247141	18.855201886887	9
265	248530	18.955264802211	9
265	249931	19.055197715174	9
265	251320	19.155234625407	9
265	252709	19.255167532569	9
265	254098	19.355256436355	9
265	255487	19.455202336507	9
265	256876	19.555174232842	9
265	258265	19.655237125269	9
265	259654	19.755235013811	9
265	261043	19.8551938986	9
265	262432	19.955230779893	9
265	263833	20.055176658054	9
265	265222	20.155174533553	9
265	266611	20.255224406943	9
265	268000	20.355235278841	9
265	269389	20.455168149899	9
265	270778	20.555179020779	9
265	272167	20.655241892136	9
265	273556	20.755252764589	9
265	274945	20.855211638703	9
265	276334	20.955261514985	9
265	277735	21.055220393859	9
265	279124	21.155244275676	9
265	280513	21.255242160705	9
265	281902	21.355214049156	9
265	283291	21.455263941187	9
265	284680	21.55517083691	9
265	286069	21.655233736406	9
265	287458	21.755257639722	9
265	288847	21.855242546889	9
265	290236	21.955214457912	9
265	291637	22.055173372786	9
265	293026	22.155236291472	9
265	294415	22.255182213915	9
265	295804	22.355258140023	9
265	297193	22.455243069663	9
265	298582	22.555189002676	9
265	299971	22.655199938849	9
265	301360	22.755223877936	9
265	302749	22.85519581965	9
265	304138	22.955219763674	9
265	305539	23.055217709654	9
265	306928	23.155189657209	9
265	308317	23.255200605935	9
265	309706	23.355211555405	9
265	311095	23.455235505176	9
265	312484	23.555207454785	9
265	313873	23.65516640377	9
265	315262	23.755190351669	9
265	316651	23.855162298039	9
265	318040	23.955173242454	9
265	319441	24.055223184515	9
265	320830	24.155260123846	9
265	322219	24.255219060102	9
265	323608	24.355164992973	9
265	324997	24.455201922175	9
265	326386	24.555264847491	9
265	327775	24.655223768787	9
265	329164	24.755221686033	9
265	330553	24.855167599318	9
265	331942	24.95520450885	9
265	333343	25.055176414957	9
265	334732	25.155226318077	9
265	336121	25.255224218742	9
265	337510	25.355170117552	9
265	338899	25.455207015154	9
265	340288	25.555256912212	9
265	341677	25.655254809388	9
265	343066	25.755252707315	9
265	344455	25.855237606584	9
265	345844	25.955235507711	9
265	347245	26.055168411147	9
265	348634	26.155192317261	9
265	350023	26.255216226343	9
265	351412	26.355240138617	9
265	352801	26.455212054247	9
265	354190	26.55526197336	9
265	355579	26.655246896047	9
265	356968	26.755257822359	9
265	358357	26.855229752335	9
265	359746	26.955162685983	9
265	361147	27.055238623298	9
265	362536	27.155210564249	9
265	363925	27.255169508781	9
265	365314	27.355245456802	9
265	366703	27.455256408184	9
265	368092	27.555189362766	9
264	12615	2	0
264	26489	3	0
264	40361	4	0
264	54236	5	0
264	68135	6	0
264	82037	7	0
264	95939	8	0
264	109841	9	0
264	123743	10	0
264	137645	11	0
264	151547	12	0
264	165449	13	0
264	179351	14	0
264	193253	15	0
264	207155	16	0
264	221057	17	0
264	234959	18	0
264	248861	19	0
264	262763	20	0
264	276665	21	0
264	290567	22	0
264	304469	23	0
264	318371	24	0
264	332273	25	0
264	346175	26	0
264	360077	27	0
263	12615	2	0.062105
263	26489	3	0.06905
263	40361	4	0.06905
263	54236	5	0.06905
263	68135	6	0.06905
263	82037	7	0.06905
263	95939	8	0.06905
263	109841	9	0.06905
263	123743	10	0.06905
263	137645	11	0.06905
263	151547	12	0.06905
263	165449	13	0.06905
263	179351	14	0.06905
263	193253	15	0.06905
263	207155	16	0.06905
263	221057	17	0.06905
263	234959	18	0.06905
263	248861	19	0.06905
263	262763	20	0.06905
263	276665	21	0.06905
263	290567	22	0.06905
263	304469	23	0.06905
263	318371	24	0.06905
263	332273	25	0.06905
263	346175	26	0.06905
263	360077	27	0.06905
262	12615	2	9
262	26489	3	9
262	40361	4	9
262	54236	5	9
262	68135	6	9
262	82037	7	9
262	95939	8	9
262	109841	9	9
262	123743	10	9
262	137645	11	9
262	151547	12	9
262	165449	13	9
262	179351	14	9
262	193253	15	9
262	207155	16	9
262	221057	17	9
262	234959	18	9
262	248861	19	9
262	262763	20	9
262	276665	21	9
262	290567	22	9
262	304469	23	9
262	318371	24	9
262	332273	25	9
262	346175	26	9
262	360077	27	9
