version 2
run Platooning-0-20190109-01:28:45-7386
attr beaconInterval 0.1
attr configname Platooning
attr controller 0
attr datetime 20190109-01:28:45
attr experiment Platooning
attr headway 0.3
attr inifile omnetpp.ini
attr iterationvars "$nCars=8, $platoonSize=8, $nLanes=1, $ploegH=0.5, $controller=0, $sController=\"ACC\", $headway=0.3, $leaderHeadway=1.2, $leaderSpeed=100, $beaconInterval=0.1, $priority=4, $packetSize=200, $0=2, $1=0.3"
attr iterationvarsf nCars=8,platoonSize=8,nLanes=1,ploegH=0.5,controller=0,sController=ACC,headway=0.3,leaderHeadway=1.2,leaderSpeed=100,beaconInterval=0.1,priority=4,packetSize=200,2,0.3-
attr leaderHeadway 1.2
attr leaderSpeed 100
attr measurement "$nCars=8, $platoonSize=8, $nLanes=1, $ploegH=0.5, $controller=0, $sController=\"ACC\", $headway=0.3, $leaderHeadway=1.2, $leaderSpeed=100, $beaconInterval=0.1, $priority=4, $packetSize=200, $0=2, $1=0.3"
attr nCars 8
attr nLanes 1
attr network Highway
attr packetSize 200
attr platoonSize 8
attr ploegH 0.5
attr priority 4
attr processid 7386
attr repetition 0
attr replication #0
attr resultdir results
attr runnumber 0
attr sController "\"ACC\""
attr seedset 0
param **.coreDebug false
param **.debug false
param **.headway 0.3s
param **.numberOfCars 8
param **.numberOfCarsPerPlatoon 8
param **.numberOfLanes 1
param **.numericController 0
param **.seed 0
param **.traffic.nCars 8
param **.traffic.nLanes 1
param **.traffic.platoonInsertDistance 2m
param **.traffic.platoonInsertHeadway 0.3s
param **.traffic.platoonInsertSpeed 100kmph
param **.traffic.platoonInsertTime "1 s"
param **.traffic.platoonLeaderHeadway 1.2s
param **.traffic.platoonSize 8
param **.traffic.platooningVType "\"vtypeauto\""
param **.traffic_type "\"PlatoonsTrafficManager\""
param *.**.nic.mac1609_4.bitrate 6Mbps
param *.**.nic.mac1609_4.txPower 100mW
param *.**.nic.mac1609_4.useServiceChannel false
param *.**.nic.phy80211p.analogueModels "xmldoc(\"config.xml\")"
param *.**.nic.phy80211p.decider "xmldoc(\"config.xml\")"
param *.**.nic.phy80211p.maxTXPower 100mW
param *.**.nic.phy80211p.sensitivity -94dBm
param *.**.nic.phy80211p.thermalNoise -95dBm
param *.**.nic.phy80211p.usePropagationDelay true
param *.**.nic.phy80211p.useThermalNoise true
param *.annotations.draw false
param *.connectionManager.drawMaxIntfDist false
param *.connectionManager.maxInterfDist 2600m
param *.connectionManager.sendDirect true
param *.manager.autoShutdown true
param *.manager.configFile "\"./sumocfg/freeway.sumo.cfg\""
param *.manager.host "\"localhost\""
param *.manager.margin 25
param *.manager.moduleDisplayString "\"\""
param *.manager.moduleName "\"node\""
param *.manager.moduleType "\"org.car2x.veins.modules.application.platooning.PlatoonCar\""
param *.manager.updateInterval 0.01s
param *.manager.useGui true
param *.node[*].appl_type "\"SimplePlatooningApp\""
param *.node[*].helper.nCars 8
param *.node[*].helper.nLanes 1
param *.node[*].helper.platoonSize 8
param *.node[*].helper_type "\"PositionHelper\""
param *.node[*].mobility.x 0
param *.node[*].mobility.y 0
param *.node[*].mobility.z 1.895
param *.node[*].prot.beaconingInterval 0.1s
param *.node[*].prot.packetSize 200
param *.node[*].prot.priority 4
param *.node[*].protocol_type "\"SimplePlatooningBeaconing\""
param *.node[*].scenario.accHeadway 0.3s
param *.node[*].scenario.caccC1 0.5
param *.node[*].scenario.caccOmegaN "0.2 Hz"
param *.node[*].scenario.caccXi 1
param *.node[*].scenario.controller "\"ACC\""
param *.node[*].scenario.engineTau "0.5 s"
param *.node[*].scenario.leaderHeadway 1.2s
param *.node[*].scenario.leaderSpeed 100kmph
param *.node[*].scenario.ploegH 0.5s
param *.node[*].scenario.ploegKd 0.7
param *.node[*].scenario.ploegKp 0.2
param *.node[*].scenario.useControllerAcceleration true
param *.node[*].scenario.useRealisticEngine false
param *.node[*].scenario_type "\"SimpleScenario\""
param *.node[*].unicast.packetLossRate 0
param *.obstacles.debug false
param *.playgroundSizeX 65000m
param *.playgroundSizeY 25000m
param *.playgroundSizeZ 50m
param *.world.use2D false
param *.world.useTorus false

vector 1  Highway.node[0].appl  distance  ETV
vector 2  Highway.node[0].appl  relativeSpeed  ETV
vector 3  Highway.node[0].appl  nodeId  ETV
vector 7  Highway.node[0].appl  acceleration  ETV
vector 8  Highway.node[0].appl  controllerAcceleration  ETV
vector 4  Highway.node[0].appl  speed  ETV
vector 5  Highway.node[0].appl  posx  ETV
vector 6  Highway.node[0].appl  posy  ETV
vector 24  Highway.node[1].appl  distance  ETV
vector 25  Highway.node[1].appl  relativeSpeed  ETV
vector 26  Highway.node[1].appl  nodeId  ETV
vector 30  Highway.node[1].appl  acceleration  ETV
vector 31  Highway.node[1].appl  controllerAcceleration  ETV
vector 27  Highway.node[1].appl  speed  ETV
vector 28  Highway.node[1].appl  posx  ETV
vector 29  Highway.node[1].appl  posy  ETV
vector 47  Highway.node[2].appl  distance  ETV
vector 48  Highway.node[2].appl  relativeSpeed  ETV
vector 49  Highway.node[2].appl  nodeId  ETV
vector 53  Highway.node[2].appl  acceleration  ETV
vector 54  Highway.node[2].appl  controllerAcceleration  ETV
vector 50  Highway.node[2].appl  speed  ETV
vector 51  Highway.node[2].appl  posx  ETV
vector 52  Highway.node[2].appl  posy  ETV
vector 70  Highway.node[3].appl  distance  ETV
vector 71  Highway.node[3].appl  relativeSpeed  ETV
vector 72  Highway.node[3].appl  nodeId  ETV
vector 76  Highway.node[3].appl  acceleration  ETV
vector 77  Highway.node[3].appl  controllerAcceleration  ETV
vector 73  Highway.node[3].appl  speed  ETV
vector 74  Highway.node[3].appl  posx  ETV
vector 75  Highway.node[3].appl  posy  ETV
vector 93  Highway.node[4].appl  distance  ETV
vector 94  Highway.node[4].appl  relativeSpeed  ETV
vector 95  Highway.node[4].appl  nodeId  ETV
vector 99  Highway.node[4].appl  acceleration  ETV
vector 100  Highway.node[4].appl  controllerAcceleration  ETV
vector 96  Highway.node[4].appl  speed  ETV
vector 97  Highway.node[4].appl  posx  ETV
vector 98  Highway.node[4].appl  posy  ETV
vector 116  Highway.node[5].appl  distance  ETV
vector 117  Highway.node[5].appl  relativeSpeed  ETV
vector 118  Highway.node[5].appl  nodeId  ETV
vector 122  Highway.node[5].appl  acceleration  ETV
vector 123  Highway.node[5].appl  controllerAcceleration  ETV
vector 119  Highway.node[5].appl  speed  ETV
vector 120  Highway.node[5].appl  posx  ETV
vector 121  Highway.node[5].appl  posy  ETV
vector 139  Highway.node[6].appl  distance  ETV
vector 140  Highway.node[6].appl  relativeSpeed  ETV
vector 141  Highway.node[6].appl  nodeId  ETV
vector 145  Highway.node[6].appl  acceleration  ETV
vector 146  Highway.node[6].appl  controllerAcceleration  ETV
vector 142  Highway.node[6].appl  speed  ETV
vector 143  Highway.node[6].appl  posx  ETV
vector 144  Highway.node[6].appl  posy  ETV
vector 162  Highway.node[7].appl  distance  ETV
vector 163  Highway.node[7].appl  relativeSpeed  ETV
vector 164  Highway.node[7].appl  nodeId  ETV
vector 168  Highway.node[7].appl  acceleration  ETV
vector 169  Highway.node[7].appl  controllerAcceleration  ETV
vector 165  Highway.node[7].appl  speed  ETV
vector 166  Highway.node[7].appl  posx  ETV
vector 167  Highway.node[7].appl  posy  ETV
vector 84  Highway.node[3].prot  frontDelay  ETV
vector 82  Highway.node[3].prot  frontDelayId  ETV
vector 61  Highway.node[2].prot  frontDelay  ETV
vector 59  Highway.node[2].prot  frontDelayId  ETV
vector 176  Highway.node[7].prot  frontDelay  ETV
vector 174  Highway.node[7].prot  frontDelayId  ETV
vector 37  Highway.node[1].prot  leaderDelay  ETV
vector 35  Highway.node[1].prot  leaderDelayId  ETV
vector 38  Highway.node[1].prot  frontDelay  ETV
vector 36  Highway.node[1].prot  frontDelayId  ETV
vector 60  Highway.node[2].prot  leaderDelay  ETV
vector 58  Highway.node[2].prot  leaderDelayId  ETV
vector 83  Highway.node[3].prot  leaderDelay  ETV
vector 81  Highway.node[3].prot  leaderDelayId  ETV
vector 106  Highway.node[4].prot  leaderDelay  ETV
vector 104  Highway.node[4].prot  leaderDelayId  ETV
vector 129  Highway.node[5].prot  leaderDelay  ETV
vector 127  Highway.node[5].prot  leaderDelayId  ETV
vector 152  Highway.node[6].prot  leaderDelay  ETV
vector 150  Highway.node[6].prot  leaderDelayId  ETV
vector 175  Highway.node[7].prot  leaderDelay  ETV
vector 173  Highway.node[7].prot  leaderDelayId  ETV
vector 130  Highway.node[5].prot  frontDelay  ETV
vector 128  Highway.node[5].prot  frontDelayId  ETV
vector 107  Highway.node[4].prot  frontDelay  ETV
vector 105  Highway.node[4].prot  frontDelayId  ETV
vector 153  Highway.node[6].prot  frontDelay  ETV
vector 151  Highway.node[6].prot  frontDelayId  ETV
vector 9  Highway.node[0].prot  nodeId  ETV
vector 10  Highway.node[0].prot  busyTime  ETV
vector 11  Highway.node[0].prot  collisions  ETV
vector 32  Highway.node[1].prot  nodeId  ETV
vector 33  Highway.node[1].prot  busyTime  ETV
vector 34  Highway.node[1].prot  collisions  ETV
vector 55  Highway.node[2].prot  nodeId  ETV
vector 56  Highway.node[2].prot  busyTime  ETV
vector 57  Highway.node[2].prot  collisions  ETV
vector 78  Highway.node[3].prot  nodeId  ETV
vector 79  Highway.node[3].prot  busyTime  ETV
vector 80  Highway.node[3].prot  collisions  ETV
vector 101  Highway.node[4].prot  nodeId  ETV
vector 102  Highway.node[4].prot  busyTime  ETV
vector 103  Highway.node[4].prot  collisions  ETV
vector 124  Highway.node[5].prot  nodeId  ETV
vector 125  Highway.node[5].prot  busyTime  ETV
vector 126  Highway.node[5].prot  collisions  ETV
vector 147  Highway.node[6].prot  nodeId  ETV
vector 148  Highway.node[6].prot  busyTime  ETV
vector 149  Highway.node[6].prot  collisions  ETV
vector 170  Highway.node[7].prot  nodeId  ETV
vector 171  Highway.node[7].prot  busyTime  ETV
vector 172  Highway.node[7].prot  collisions  ETV
8	233	1.11	-0.00218518
8	790	1.21	-0.00213419
8	1346	1.31	-0.00205408
8	1903	1.41	-0.00195152
8	2460	1.51	-0.00183238
8	3016	1.61	-0.00170178
8	3572	1.71	-0.00156412
8	4129	1.81	-0.00142314
8	4685	1.91	-0.00128196
8	5252	2.01	-0.00114315
8	5808	2.11	-0.00100877
8	6364	2.21	-0.000880447
8	6920	2.31	-0.000759381
8	7476	2.41	-0.000646445
8	8032	2.51	-0.000542204
8	8588	2.61	-0.000446965
8	9144	2.71	-0.000360819
8	9700	2.81	-0.000283678
8	10256	2.91	-0.000215307
8	10820	3.01	-0.000155357
8	11376	3.11	-0.000103391
8	11932	3.21	-5.89069e-05
8	12488	3.31	-2.13575e-05
8	13044	3.41	9.82919e-06
8	13600	3.51	3.52368e-05
8	14156	3.61	5.54479e-05
8	14712	3.71	7.10335e-05
8	15268	3.81	8.25451e-05
8	15824	3.91	9.05081e-05
8	16388	4.01	9.54172e-05
8	16944	4.11	9.7733e-05
8	17500	4.21	9.78798e-05
8	18056	4.31	9.62447e-05
8	18612	4.41	9.31771e-05
8	19168	4.51	8.89894e-05
8	19724	4.61	8.39579e-05
8	20280	4.71	7.83245e-05
8	20836	4.81	7.22983e-05
8	21392	4.91	6.6058e-05
8	21956	5.01	5.9754e-05
8	22512	5.11	5.35107e-05
8	23068	5.21	4.74294e-05
8	23624	5.31	4.15898e-05
8	24180	5.41	3.60534e-05
8	24736	5.51	3.0865e-05
8	25292	5.61	2.60551e-05
8	25848	5.71	2.16419e-05
8	26404	5.81	1.76335e-05
8	26960	5.91	1.40289e-05
8	27524	6.01	1.08202e-05
8	28080	6.11	7.99392e-06
8	28636	6.21	5.532e-06
8	29192	6.31	3.41315e-06
8	29748	6.41	1.61374e-06
8	30304	6.51	1.08654e-07
8	30860	6.61	-1.12799e-06
8	31416	6.71	-2.12224e-06
8	31972	6.81	-2.89981e-06
8	32528	6.91	-3.48567e-06
8	33092	7.01	-3.90376e-06
8	33648	7.11	-4.17673e-06
8	34204	7.21	-4.32574e-06
8	34760	7.31	-4.3704e-06
8	35316	7.41	-4.32865e-06
8	35872	7.51	-4.21676e-06
8	36428	7.61	-4.04934e-06
8	36984	7.71	-3.83937e-06
8	37540	7.81	-3.59826e-06
8	38096	7.91	-3.33592e-06
8	38660	8.01	-3.06089e-06
8	39216	8.11	-2.78036e-06
8	39772	8.21	-2.50036e-06
8	40328	8.31	-2.22582e-06
8	40884	8.41	-1.96068e-06
8	41440	8.51	-1.708e-06
8	41996	8.61	-1.47009e-06
8	42552	8.71	-1.24855e-06
8	43108	8.81	-1.04441e-06
8	43664	8.91	-8.58219e-07
8	44228	9.01	-6.90082e-07
8	44784	9.11	-5.39774e-07
8	45340	9.21	-4.06787e-07
8	45896	9.31	-2.90396e-07
8	46452	9.41	-1.89707e-07
8	47008	9.51	-1.03704e-07
8	47564	9.61	-3.12909e-08
8	48120	9.71	2.86736e-08
8	48676	9.81	7.73515e-08
8	49232	9.91	1.15897e-07
8	49796	10.01	1.45439e-07
8	50352	10.11	1.67065e-07
8	50908	10.21	1.81809e-07
8	51464	10.31	1.90644e-07
8	52020	10.41	1.94472e-07
8	52576	10.51	1.94125e-07
8	53132	10.61	1.90358e-07
8	53688	10.71	1.83853e-07
8	54244	10.81	1.75219e-07
8	54800	10.91	1.64994e-07
8	55364	11.01	1.53647e-07
8	55920	11.11	1.41582e-07
8	56476	11.21	1.29146e-07
8	57032	11.31	1.16627e-07
8	57588	11.41	1.04266e-07
8	58144	11.51	9.22547e-08
8	58700	11.61	8.07471e-08
8	59256	11.71	6.98584e-08
8	59812	11.81	5.96732e-08
8	60368	11.91	5.02471e-08
8	60932	12.01	4.16133e-08
8	61488	12.11	3.37845e-08
8	62044	12.21	2.67558e-08
8	62600	12.31	2.05102e-08
8	63156	12.41	1.50187e-08
8	63712	12.51	1.02442e-08
8	64268	12.61	6.14406e-09
8	64824	12.71	2.67022e-09
8	65380	12.81	-2.27374e-10
8	65936	12.91	-2.60059e-09
8	66500	13.01	-4.50058e-09
8	67056	13.11	-5.97851e-09
8	67612	13.21	-7.08376e-09
8	68168	13.31	-7.86322e-09
8	68724	13.41	-8.36167e-09
8	69280	13.51	-8.62066e-09
8	69836	13.61	-8.67857e-09
8	70392	13.71	-8.57057e-09
8	70948	13.81	-8.32792e-09
8	71504	13.91	-7.97975e-09
8	72068	14.01	-7.55058e-09
8	72624	14.11	-7.06351e-09
8	73180	14.21	-6.53699e-09
8	73736	14.31	-5.98774e-09
8	74292	14.41	-5.42997e-09
8	74848	14.51	-4.87468e-09
8	75404	14.61	-4.33182e-09
8	75960	14.71	-3.80886e-09
8	76516	14.81	-3.31148e-09
8	77072	14.91	-2.84395e-09
8	77636	15.01	-2.40981e-09
8	78192	15.11	-2.01013e-09
8	78748	15.21	-1.64633e-09
8	79304	15.31	-1.31806e-09
8	79860	15.41	-1.02531e-09
8	80416	15.51	-7.66676e-10
8	80972	15.61	-5.40723e-10
8	81528	15.71	-3.46034e-10
8	82084	15.81	-1.79767e-10
8	82640	15.91	-4.01457e-11
8	83204	16.01	7.49623e-11
8	83760	16.11	1.68043e-10
8	84316	16.21	2.41585e-10
8	84872	16.31	2.97362e-10
8	85428	16.41	3.37863e-10
8	85984	16.51	3.64864e-10
8	86540	16.61	3.80851e-10
8	87096	16.71	3.86891e-10
8	87652	16.81	3.84759e-10
8	88208	16.91	3.76232e-10
8	88772	17.01	3.62377e-10
8	89328	17.11	3.44613e-10
8	89884	17.21	3.24007e-10
8	90440	17.31	3.00915e-10
8	90996	17.41	2.76756e-10
8	91552	17.51	2.52243e-10
8	92108	17.61	2.27374e-10
8	92664	17.71	2.0286e-10
8	93220	17.81	1.79057e-10
8	93776	17.91	1.56319e-10
8	94340	18.01	1.35003e-10
8	94896	18.11	1.15108e-10
8	95452	18.21	9.66338e-11
8	96008	18.31	7.99361e-11
8	96564	18.41	6.46594e-11
8	97120	18.51	5.08038e-11
8	97676	18.61	3.83693e-11
8	98232	18.71	2.73559e-11
8	98788	18.81	1.77636e-11
8	99344	18.91	9.59233e-12
8	99908	19.01	2.84217e-12
8	100464	19.11	-2.84217e-12
8	101020	19.21	-7.4607e-12
8	101576	19.31	-1.13687e-11
8	102132	19.41	-1.42109e-11
8	102688	19.51	-1.63425e-11
8	103244	19.61	-1.77636e-11
8	103800	19.71	-1.84741e-11
8	104356	19.81	-1.88294e-11
8	104912	19.91	-1.88294e-11
8	105476	20.01	-1.88294e-11
8	106032	20.11	-1.81188e-11
8	106588	20.21	-1.7053e-11
8	107144	20.31	-1.63425e-11
8	107700	20.41	-1.52767e-11
8	108256	20.51	-1.45661e-11
8	108812	20.61	-1.35003e-11
8	109368	20.71	-1.27898e-11
8	109924	20.81	-1.1724e-11
8	110480	20.91	-1.10134e-11
8	111044	21.01	-9.9476e-12
8	111600	21.11	-9.23706e-12
8	112156	21.21	-8.17124e-12
8	112712	21.31	-7.4607e-12
8	113268	21.41	-6.39488e-12
8	113824	21.51	-5.68434e-12
8	114380	21.61	-4.61853e-12
8	114936	21.71	-3.90799e-12
8	115492	21.81	-2.84217e-12
8	116048	21.91	-2.13163e-12
8	116612	22.01	-1.06581e-12
8	117168	22.11	-3.55271e-13
8	117724	22.21	7.10543e-13
8	118280	22.31	1.42109e-12
8	118836	22.41	2.13163e-12
8	119392	22.51	2.84217e-12
8	119948	22.61	3.19744e-12
8	120504	22.71	3.90799e-12
8	121060	22.81	4.26326e-12
8	121616	22.91	4.61853e-12
8	122180	23.01	5.32907e-12
8	122736	23.11	5.68434e-12
8	123292	23.21	5.68434e-12
8	123848	23.31	6.03961e-12
8	124404	23.41	6.39488e-12
8	124960	23.51	6.75016e-12
8	125516	23.61	6.75016e-12
8	126072	23.71	7.10543e-12
8	126628	23.81	7.10543e-12
8	127184	23.91	7.4607e-12
8	127748	24.01	7.4607e-12
8	128304	24.11	7.81597e-12
8	128860	24.21	7.81597e-12
8	129416	24.31	7.81597e-12
8	129972	24.41	7.81597e-12
8	130528	24.51	8.17124e-12
8	131084	24.61	8.17124e-12
8	131640	24.71	8.17124e-12
8	132196	24.81	8.17124e-12
8	132752	24.91	8.17124e-12
8	133316	25.01	8.52651e-12
8	133872	25.11	8.52651e-12
8	134428	25.21	8.52651e-12
8	134984	25.31	8.52651e-12
8	135540	25.41	8.52651e-12
8	136096	25.51	8.52651e-12
8	136652	25.61	8.52651e-12
8	137208	25.71	8.52651e-12
8	137764	25.81	8.52651e-12
8	138320	25.91	8.52651e-12
8	138884	26.01	8.88178e-12
8	139440	26.11	8.88178e-12
8	139996	26.21	8.88178e-12
8	140552	26.31	8.88178e-12
8	141108	26.41	8.88178e-12
8	141664	26.51	8.88178e-12
8	142220	26.61	8.88178e-12
8	142776	26.71	8.88178e-12
8	143332	26.81	8.88178e-12
8	143888	26.91	8.88178e-12
8	144452	27.01	8.88178e-12
8	145008	27.11	8.88178e-12
8	145564	27.21	8.88178e-12
8	146120	27.31	8.88178e-12
8	146676	27.41	8.88178e-12
8	147232	27.51	8.88178e-12
8	147788	27.61	8.88178e-12
8	148344	27.71	8.88178e-12
8	148900	27.81	8.88178e-12
8	149456	27.91	8.88178e-12
8	150020	28.01	8.88178e-12
8	150576	28.11	8.88178e-12
8	151132	28.21	8.88178e-12
8	151688	28.31	8.88178e-12
8	152244	28.41	8.88178e-12
8	152800	28.51	8.88178e-12
8	153356	28.61	8.88178e-12
8	153912	28.71	8.88178e-12
8	154468	28.81	8.88178e-12
8	155024	28.91	8.88178e-12
8	155588	29.01	8.88178e-12
8	156144	29.11	8.88178e-12
8	156700	29.21	8.88178e-12
8	157256	29.31	8.88178e-12
8	157812	29.41	8.88178e-12
8	158368	29.51	8.88178e-12
8	158924	29.61	8.88178e-12
8	159480	29.71	8.88178e-12
8	160036	29.81	8.88178e-12
8	160592	29.91	8.88178e-12
8	161156	30.01	8.88178e-12
8	161712	30.11	8.88178e-12
8	162268	30.21	8.88178e-12
8	162824	30.31	8.88178e-12
8	163380	30.41	8.88178e-12
8	163936	30.51	8.88178e-12
8	164492	30.61	8.88178e-12
8	165048	30.71	8.88178e-12
8	165604	30.81	8.88178e-12
8	166160	30.91	8.88178e-12
8	166724	31.01	8.88178e-12
8	167280	31.11	8.88178e-12
8	167836	31.21	8.88178e-12
8	168392	31.31	8.88178e-12
8	168948	31.41	8.88178e-12
8	169504	31.51	8.88178e-12
8	170060	31.61	8.88178e-12
8	170616	31.71	8.88178e-12
8	171172	31.81	8.88178e-12
8	171728	31.91	8.88178e-12
8	172292	32.01	8.88178e-12
8	172848	32.11	8.88178e-12
8	173404	32.21	8.88178e-12
8	173960	32.31	8.88178e-12
8	174516	32.41	8.88178e-12
8	175072	32.51	8.88178e-12
8	175628	32.61	8.88178e-12
8	176184	32.71	8.88178e-12
8	176740	32.81	8.88178e-12
8	177296	32.91	8.88178e-12
8	177860	33.01	8.88178e-12
8	178416	33.11	8.88178e-12
8	178972	33.21	8.88178e-12
8	179528	33.31	8.88178e-12
8	180084	33.41	8.88178e-12
8	180640	33.51	8.88178e-12
8	181196	33.61	8.88178e-12
8	181752	33.71	8.88178e-12
8	182308	33.81	8.88178e-12
8	182864	33.91	8.88178e-12
8	183428	34.01	8.88178e-12
8	183984	34.11	8.88178e-12
8	184540	34.21	8.88178e-12
8	185096	34.31	8.88178e-12
8	185652	34.41	8.88178e-12
8	186208	34.51	8.88178e-12
8	186764	34.61	8.88178e-12
8	187320	34.71	8.88178e-12
8	187876	34.81	8.88178e-12
8	188432	34.91	8.88178e-12
8	188996	35.01	8.88178e-12
8	189552	35.11	8.88178e-12
8	190108	35.21	8.88178e-12
8	190664	35.31	8.88178e-12
8	191220	35.41	8.88178e-12
8	191776	35.51	8.88178e-12
8	192332	35.61	8.88178e-12
8	192888	35.71	8.88178e-12
8	193444	35.81	8.88178e-12
8	194000	35.91	8.88178e-12
8	194564	36.01	8.88178e-12
8	195120	36.11	8.88178e-12
8	195676	36.21	8.88178e-12
8	196232	36.31	8.88178e-12
8	196788	36.41	8.88178e-12
8	197344	36.51	8.88178e-12
8	197900	36.61	8.88178e-12
8	198456	36.71	8.88178e-12
8	199012	36.81	8.88178e-12
8	199568	36.91	8.88178e-12
8	200132	37.01	8.88178e-12
8	200688	37.11	8.88178e-12
8	201244	37.21	8.88178e-12
8	201800	37.31	8.88178e-12
8	202356	37.41	8.88178e-12
8	202912	37.51	8.88178e-12
8	203468	37.61	8.88178e-12
8	204024	37.71	8.88178e-12
8	204580	37.81	8.88178e-12
8	205136	37.91	8.88178e-12
8	205700	38.01	8.88178e-12
8	206256	38.11	8.88178e-12
8	206812	38.21	8.88178e-12
8	207368	38.31	8.88178e-12
8	207924	38.41	8.88178e-12
8	208480	38.51	8.88178e-12
8	209036	38.61	8.88178e-12
8	209592	38.71	8.88178e-12
8	210148	38.81	8.88178e-12
8	210704	38.91	8.88178e-12
8	211268	39.01	8.88178e-12
8	211824	39.11	8.88178e-12
8	212380	39.21	8.88178e-12
8	212936	39.31	8.88178e-12
8	213492	39.41	8.88178e-12
8	214048	39.51	8.88178e-12
8	214604	39.61	8.88178e-12
8	215160	39.71	8.88178e-12
8	215716	39.81	8.88178e-12
8	216272	39.91	8.88178e-12
8	216836	40.01	8.88178e-12
8	217392	40.11	8.88178e-12
8	217948	40.21	8.88178e-12
8	218504	40.31	8.88178e-12
8	219060	40.41	8.88178e-12
8	219616	40.51	8.88178e-12
8	220172	40.61	8.88178e-12
8	220728	40.71	8.88178e-12
8	221284	40.81	8.88178e-12
8	221840	40.91	8.88178e-12
8	222404	41.01	8.88178e-12
8	222960	41.11	8.88178e-12
8	223516	41.21	8.88178e-12
8	224072	41.31	8.88178e-12
8	224628	41.41	8.88178e-12
8	225184	41.51	8.88178e-12
8	225740	41.61	8.88178e-12
8	226296	41.71	8.88178e-12
8	226852	41.81	8.88178e-12
8	227408	41.91	8.88178e-12
8	227972	42.01	8.88178e-12
8	228528	42.11	8.88178e-12
8	229084	42.21	8.88178e-12
8	229640	42.31	8.88178e-12
8	230196	42.41	8.88178e-12
8	230752	42.51	8.88178e-12
8	231308	42.61	8.88178e-12
8	231864	42.71	8.88178e-12
8	232420	42.81	8.88178e-12
8	232976	42.91	8.88178e-12
8	233540	43.01	8.88178e-12
8	234096	43.11	8.88178e-12
8	234652	43.21	8.88178e-12
8	235208	43.31	8.88178e-12
8	235764	43.41	8.88178e-12
8	236320	43.51	8.88178e-12
8	236876	43.61	8.88178e-12
8	237432	43.71	8.88178e-12
8	237988	43.81	8.88178e-12
8	238544	43.91	8.88178e-12
8	239108	44.01	8.88178e-12
8	239664	44.11	8.88178e-12
8	240220	44.21	8.88178e-12
8	240776	44.31	8.88178e-12
8	241332	44.41	8.88178e-12
8	241888	44.51	8.88178e-12
8	242444	44.61	8.88178e-12
8	243000	44.71	8.88178e-12
8	243556	44.81	8.88178e-12
8	244112	44.91	8.88178e-12
8	244676	45.01	8.88178e-12
8	245232	45.11	8.88178e-12
8	245788	45.21	8.88178e-12
8	246344	45.31	8.88178e-12
8	246900	45.41	8.88178e-12
8	247456	45.51	8.88178e-12
8	248012	45.61	8.88178e-12
8	248568	45.71	8.88178e-12
8	249124	45.81	8.88178e-12
8	249680	45.91	8.88178e-12
8	250244	46.01	8.88178e-12
8	250800	46.11	8.88178e-12
8	251356	46.21	8.88178e-12
8	251912	46.31	8.88178e-12
8	252468	46.41	8.88178e-12
8	253024	46.51	8.88178e-12
8	253580	46.61	8.88178e-12
8	254136	46.71	8.88178e-12
8	254692	46.81	8.88178e-12
8	255248	46.91	8.88178e-12
8	255812	47.01	8.88178e-12
8	256368	47.11	8.88178e-12
8	256924	47.21	8.88178e-12
8	257480	47.31	8.88178e-12
8	258036	47.41	8.88178e-12
8	258592	47.51	8.88178e-12
8	259148	47.61	8.88178e-12
8	259704	47.71	8.88178e-12
8	260260	47.81	8.88178e-12
8	260816	47.91	8.88178e-12
8	261380	48.01	8.88178e-12
8	261936	48.11	8.88178e-12
8	262492	48.21	8.88178e-12
8	263048	48.31	8.88178e-12
8	263604	48.41	8.88178e-12
8	264160	48.51	8.88178e-12
8	264716	48.61	8.88178e-12
8	265272	48.71	8.88178e-12
8	265828	48.81	8.88178e-12
8	266384	48.91	8.88178e-12
8	266948	49.01	8.88178e-12
8	267504	49.11	8.88178e-12
8	268060	49.21	8.88178e-12
8	268616	49.31	8.88178e-12
8	269172	49.41	8.88178e-12
8	269728	49.51	8.88178e-12
8	270284	49.61	8.88178e-12
8	270840	49.71	8.88178e-12
8	271396	49.81	8.88178e-12
8	271952	49.91	8.88178e-12
8	272516	50.01	8.88178e-12
8	273072	50.11	8.88178e-12
8	273628	50.21	8.88178e-12
8	274184	50.31	8.88178e-12
8	274740	50.41	8.88178e-12
8	275296	50.51	8.88178e-12
8	275852	50.61	8.88178e-12
8	276408	50.71	8.88178e-12
8	276964	50.81	8.88178e-12
8	277520	50.91	8.88178e-12
8	278084	51.01	8.88178e-12
8	278640	51.11	8.88178e-12
8	279196	51.21	8.88178e-12
8	279752	51.31	8.88178e-12
8	280308	51.41	8.88178e-12
8	280864	51.51	8.88178e-12
8	281420	51.61	8.88178e-12
8	281976	51.71	8.88178e-12
8	282532	51.81	8.88178e-12
8	283088	51.91	8.88178e-12
8	283652	52.01	8.88178e-12
8	284208	52.11	8.88178e-12
8	284764	52.21	8.88178e-12
8	285320	52.31	8.88178e-12
8	285876	52.41	8.88178e-12
8	286432	52.51	8.88178e-12
8	286988	52.61	8.88178e-12
8	287544	52.71	8.88178e-12
8	288100	52.81	8.88178e-12
8	288656	52.91	8.88178e-12
8	289220	53.01	8.88178e-12
8	289776	53.11	8.88178e-12
8	290332	53.21	8.88178e-12
8	290888	53.31	8.88178e-12
8	291444	53.41	8.88178e-12
8	292000	53.51	8.88178e-12
8	292556	53.61	8.88178e-12
8	293112	53.71	8.88178e-12
8	293668	53.81	8.88178e-12
8	294224	53.91	8.88178e-12
8	294788	54.01	8.88178e-12
8	295344	54.11	8.88178e-12
8	295900	54.21	8.88178e-12
8	296456	54.31	8.88178e-12
8	297012	54.41	8.88178e-12
8	297568	54.51	8.88178e-12
8	298124	54.61	8.88178e-12
8	298680	54.71	8.88178e-12
8	299236	54.81	8.88178e-12
8	299792	54.91	8.88178e-12
8	300356	55.01	8.88178e-12
8	300912	55.11	8.88178e-12
8	301468	55.21	8.88178e-12
8	302024	55.31	8.88178e-12
8	302580	55.41	8.88178e-12
8	303136	55.51	8.88178e-12
8	303692	55.61	8.88178e-12
8	304248	55.71	8.88178e-12
8	304804	55.81	8.88178e-12
8	305360	55.91	8.88178e-12
8	305924	56.01	8.88178e-12
8	306480	56.11	8.88178e-12
8	307036	56.21	8.88178e-12
8	307592	56.31	8.88178e-12
8	308148	56.41	8.88178e-12
8	308704	56.51	8.88178e-12
8	309260	56.61	8.88178e-12
8	309816	56.71	8.88178e-12
8	310372	56.81	8.88178e-12
8	310928	56.91	8.88178e-12
8	311492	57.01	8.88178e-12
8	312048	57.11	8.88178e-12
8	312604	57.21	8.88178e-12
8	313160	57.31	8.88178e-12
8	313716	57.41	8.88178e-12
8	314272	57.51	8.88178e-12
8	314828	57.61	8.88178e-12
8	315384	57.71	8.88178e-12
8	315940	57.81	8.88178e-12
8	316496	57.91	8.88178e-12
8	317060	58.01	8.88178e-12
8	317616	58.11	8.88178e-12
8	318172	58.21	8.88178e-12
8	318728	58.31	8.88178e-12
8	319284	58.41	8.88178e-12
8	319840	58.51	8.88178e-12
8	320396	58.61	8.88178e-12
8	320952	58.71	8.88178e-12
8	321508	58.81	8.88178e-12
8	322064	58.91	8.88178e-12
8	322628	59.01	8.88178e-12
8	323184	59.11	8.88178e-12
8	323740	59.21	8.88178e-12
8	324296	59.31	8.88178e-12
8	324852	59.41	8.88178e-12
8	325408	59.51	8.88178e-12
8	325964	59.61	8.88178e-12
8	326520	59.71	8.88178e-12
8	327076	59.81	8.88178e-12
8	327632	59.91	8.88178e-12
7	233	1.11	-0.000358191
7	790	1.21	-0.000681704
7	1346	1.31	-0.00093487
7	1903	1.41	-0.00112579
7	2460	1.51	-0.00126221
7	3016	1.61	-0.00135149
7	3572	1.71	-0.00140049
7	4129	1.81	-0.00141557
7	4685	1.91	-0.00140255
7	5252	2.01	-0.00136671
7	5808	2.11	-0.0013128
7	6364	2.21	-0.00124502
7	6920	2.31	-0.0011671
7	7476	2.41	-0.00108223
7	8032	2.51	-0.000993208
7	8588	2.61	-0.000902362
7	9144	2.71	-0.000811651
7	9700	2.81	-0.000722679
7	10256	2.91	-0.000636729
7	10820	3.01	-0.0005548
7	11376	3.11	-0.000477639
7	11932	3.21	-0.000405773
7	12488	3.31	-0.00033954
7	13044	3.41	-0.000279116
7	13600	3.51	-0.000224541
7	14156	3.61	-0.000175743
7	14712	3.71	-0.00013256
7	15268	3.81	-9.47571e-05
7	15824	3.91	-6.2046e-05
7	16388	4.01	-3.40986e-05
7	16944	4.11	-1.05605e-05
7	17500	4.21	8.93844e-06
7	18056	4.31	2.4774e-05
7	18612	4.41	3.73203e-05
7	19168	4.51	4.69433e-05
7	19724	4.61	5.39956e-05
7	20280	4.71	5.88124e-05
7	20836	4.81	6.1709e-05
7	21392	4.91	6.29785e-05
7	21956	5.01	6.28903e-05
7	22512	5.11	6.169e-05
7	23068	5.21	5.95988e-05
7	23624	5.31	5.68144e-05
7	24180	5.41	5.35112e-05
7	24736	5.51	4.98416e-05
7	25292	5.61	4.59373e-05
7	25848	5.71	4.19105e-05
7	26404	5.81	3.78555e-05
7	26960	5.91	3.38499e-05
7	27524	6.01	2.99569e-05
7	28080	6.11	2.62259e-05
7	28636	6.21	2.26948e-05
7	29192	6.31	1.93911e-05
7	29748	6.41	1.6333e-05
7	30304	6.51	1.35314e-05
7	30860	6.61	1.09904e-05
7	31416	6.71	8.70882e-06
7	31972	6.81	6.6809e-06
7	32528	6.91	4.89747e-06
7	33092	7.01	3.3466e-06
7	33648	7.11	2.01432e-06
7	34204	7.21	8.85256e-07
7	34760	7.31	-5.68459e-08
7	35316	7.41	-8.28678e-07
7	35872	7.51	-1.44699e-06
7	36428	7.61	-1.92826e-06
7	36984	7.71	-2.28849e-06
7	37540	7.81	-2.54296e-06
7	38096	7.91	-2.7061e-06
7	38660	8.01	-2.79139e-06
7	39216	8.11	-2.8113e-06
7	39772	8.21	-2.77721e-06
7	40328	8.31	-2.69943e-06
7	40884	8.41	-2.58721e-06
7	41440	8.51	-2.44874e-06
7	41996	8.61	-2.29123e-06
7	42552	8.71	-2.12092e-06
7	43108	8.81	-1.94317e-06
7	43664	8.91	-1.7625e-06
7	44228	9.01	-1.58267e-06
7	44784	9.11	-1.40677e-06
7	45340	9.21	-1.23723e-06
7	45896	9.31	-1.07596e-06
7	46452	9.41	-9.24364e-07
7	47008	9.51	-7.83424e-07
7	47564	9.61	-6.53753e-07
7	48120	9.71	-5.35652e-07
7	48676	9.81	-4.2916e-07
7	49232	9.91	-3.34103e-07
7	49796	10.01	-2.5013e-07
7	50352	10.11	-1.76757e-07
7	50908	10.21	-1.13395e-07
7	51464	10.31	-5.93825e-08
7	52020	10.41	-1.40084e-08
7	52576	10.51	2.34657e-08
7	53132	10.61	5.3787e-08
7	53688	10.71	7.76954e-08
7	54244	10.81	9.59155e-08
7	54800	10.91	1.09142e-07
7	55364	11.01	1.18035e-07
7	55920	11.11	1.23212e-07
7	56476	11.21	1.2525e-07
7	57032	11.31	1.24675e-07
7	57588	11.41	1.21968e-07
7	58144	11.51	1.17559e-07
7	58700	11.61	1.11834e-07
7	59256	11.71	1.05132e-07
7	59812	11.81	9.77476e-08
7	60368	11.91	8.99373e-08
7	60932	12.01	8.19171e-08
7	61488	12.11	7.38677e-08
7	62044	12.21	6.59401e-08
7	62600	12.31	5.82538e-08
7	63156	12.41	5.09036e-08
7	63712	12.51	4.39606e-08
7	64268	12.61	3.74765e-08
7	64824	12.71	3.14852e-08
7	65380	12.81	2.60055e-08
7	65936	12.91	2.10438e-08
7	66500	13.01	1.65958e-08
7	67056	13.11	1.26498e-08
7	67612	13.21	9.18554e-09
7	68168	13.31	6.17888e-09
7	68724	13.41	3.60174e-09
7	69280	13.51	1.42322e-09
7	69836	13.61	-3.90088e-10
7	70392	13.71	-1.8705e-09
7	70948	13.81	-3.05107e-09
7	71504	13.91	-3.96518e-09
7	72068	14.01	-4.64375e-09
7	72624	14.11	-5.11768e-09
7	73180	14.21	-5.41434e-09
7	73736	14.31	-5.56071e-09
7	74292	14.41	-5.58096e-09
7	74848	14.51	-5.49747e-09
7	75404	14.61	-5.33085e-09
7	75960	14.71	-5.09743e-09
7	76516	14.81	-4.81464e-09
7	77072	14.91	-4.49667e-09
7	77636	15.01	-4.15525e-09
7	78192	15.11	-3.80034e-09
7	78748	15.21	-3.44151e-09
7	79304	15.31	-3.08518e-09
7	79860	15.41	-2.73772e-09
7	80416	15.51	-2.40306e-09
7	80972	15.61	-2.08544e-09
7	81528	15.71	-1.78773e-09
7	82084	15.81	-1.51132e-09
7	82640	15.91	-1.25766e-09
7	83204	16.01	-1.02673e-09
7	83760	16.11	-8.18901e-10
7	84316	16.21	-6.33804e-10
7	84872	16.31	-4.70735e-10
7	85428	16.41	-3.28271e-10
7	85984	16.51	-2.05702e-10
7	86540	16.61	-1.00897e-10
7	87096	16.71	-1.35003e-11
7	87652	16.81	5.82645e-11
7	88208	16.91	1.16174e-10
7	88772	17.01	1.61648e-10
7	89328	17.11	1.95755e-10
7	89884	17.21	2.20624e-10
7	90440	17.31	2.36966e-10
7	90996	17.41	2.45848e-10
7	91552	17.51	2.4869e-10
7	92108	17.61	2.46914e-10
7	92664	17.71	2.40874e-10
7	93220	17.81	2.31282e-10
7	93776	17.91	2.19913e-10
7	94340	18.01	2.05702e-10
7	94896	18.11	1.91491e-10
7	95452	18.21	1.7657e-10
7	96008	18.31	1.59872e-10
7	96564	18.41	1.44595e-10
7	97120	18.51	1.30385e-10
7	97676	18.61	1.16174e-10
7	98232	18.71	1.01963e-10
7	98788	18.81	8.7752e-11
7	99344	18.91	7.35412e-11
7	99908	19.01	6.21725e-11
7	100464	19.11	5.15143e-11
7	101020	19.21	4.08562e-11
7	101576	19.31	3.16192e-11
7	102132	19.41	2.45137e-11
7	102688	19.51	1.74083e-11
7	103244	19.61	1.03029e-11
7	103800	19.71	6.03961e-12
7	104356	19.81	2.4869e-12
7	104912	19.91	-1.06581e-12
7	105476	20.01	-4.61853e-12
7	106032	20.11	-8.17124e-12
7	106588	20.21	-8.88178e-12
7	107144	20.31	-8.88178e-12
7	107700	20.41	-8.88178e-12
7	108256	20.51	-8.88178e-12
7	108812	20.61	-8.88178e-12
7	109368	20.71	-8.88178e-12
7	109924	20.81	-8.88178e-12
7	110480	20.91	-8.88178e-12
7	111044	21.01	-8.88178e-12
7	111600	21.11	-8.88178e-12
7	112156	21.21	-8.88178e-12
7	112712	21.31	-8.88178e-12
7	113268	21.41	-8.88178e-12
7	113824	21.51	-8.88178e-12
7	114380	21.61	-8.88178e-12
7	114936	21.71	-8.88178e-12
7	115492	21.81	-8.88178e-12
7	116048	21.91	-8.88178e-12
7	116612	22.01	-8.88178e-12
7	117168	22.11	-8.88178e-12
7	117724	22.21	-8.17124e-12
7	118280	22.31	-7.4607e-12
7	118836	22.41	-6.75016e-12
7	119392	22.51	-6.03961e-12
7	119948	22.61	-5.68434e-12
7	120504	22.71	-4.9738e-12
7	121060	22.81	-4.61853e-12
7	121616	22.91	-4.26326e-12
7	122180	23.01	-3.55271e-12
7	122736	23.11	-3.19744e-12
7	123292	23.21	-3.19744e-12
7	123848	23.31	-2.84217e-12
7	124404	23.41	-2.4869e-12
7	124960	23.51	-2.13163e-12
7	125516	23.61	-2.13163e-12
7	126072	23.71	-1.77636e-12
7	126628	23.81	-1.77636e-12
7	127184	23.91	-1.42109e-12
7	127748	24.01	-1.42109e-12
7	128304	24.11	-1.06581e-12
7	128860	24.21	-1.06581e-12
7	129416	24.31	-1.06581e-12
7	129972	24.41	-1.06581e-12
7	130528	24.51	-7.10543e-13
7	131084	24.61	-7.10543e-13
7	131640	24.71	-7.10543e-13
7	132196	24.81	-7.10543e-13
7	132752	24.91	-7.10543e-13
7	133316	25.01	-3.55271e-13
7	133872	25.11	-3.55271e-13
7	134428	25.21	-3.55271e-13
7	134984	25.31	-3.55271e-13
7	135540	25.41	-3.55271e-13
7	136096	25.51	-3.55271e-13
7	136652	25.61	-3.55271e-13
7	137208	25.71	-3.55271e-13
7	137764	25.81	-3.55271e-13
7	138320	25.91	-3.55271e-13
7	138884	26.01	0
7	139440	26.11	0
7	139996	26.21	0
7	140552	26.31	0
7	141108	26.41	0
7	141664	26.51	0
7	142220	26.61	0
7	142776	26.71	0
7	143332	26.81	0
7	143888	26.91	0
7	144452	27.01	0
7	145008	27.11	0
7	145564	27.21	0
7	146120	27.31	0
7	146676	27.41	0
7	147232	27.51	0
7	147788	27.61	0
7	148344	27.71	0
7	148900	27.81	0
7	149456	27.91	0
7	150020	28.01	0
7	150576	28.11	0
7	151132	28.21	0
7	151688	28.31	0
7	152244	28.41	0
7	152800	28.51	0
7	153356	28.61	0
7	153912	28.71	0
7	154468	28.81	0
7	155024	28.91	0
7	155588	29.01	0
7	156144	29.11	0
7	156700	29.21	0
7	157256	29.31	0
7	157812	29.41	0
7	158368	29.51	0
7	158924	29.61	0
7	159480	29.71	0
7	160036	29.81	0
7	160592	29.91	0
7	161156	30.01	0
7	161712	30.11	0
7	162268	30.21	0
7	162824	30.31	0
7	163380	30.41	0
7	163936	30.51	0
7	164492	30.61	0
7	165048	30.71	0
7	165604	30.81	0
7	166160	30.91	0
7	166724	31.01	0
7	167280	31.11	0
7	167836	31.21	0
7	168392	31.31	0
7	168948	31.41	0
7	169504	31.51	0
7	170060	31.61	0
7	170616	31.71	0
7	171172	31.81	0
7	171728	31.91	0
7	172292	32.01	0
7	172848	32.11	0
7	173404	32.21	0
7	173960	32.31	0
7	174516	32.41	0
7	175072	32.51	0
7	175628	32.61	0
7	176184	32.71	0
7	176740	32.81	0
7	177296	32.91	0
7	177860	33.01	0
7	178416	33.11	0
7	178972	33.21	0
7	179528	33.31	0
7	180084	33.41	0
7	180640	33.51	0
7	181196	33.61	0
7	181752	33.71	0
7	182308	33.81	0
7	182864	33.91	0
7	183428	34.01	0
7	183984	34.11	0
7	184540	34.21	0
7	185096	34.31	0
7	185652	34.41	0
7	186208	34.51	0
7	186764	34.61	0
7	187320	34.71	0
7	187876	34.81	0
7	188432	34.91	0
7	188996	35.01	0
7	189552	35.11	0
7	190108	35.21	0
7	190664	35.31	0
7	191220	35.41	0
7	191776	35.51	0
7	192332	35.61	0
7	192888	35.71	0
7	193444	35.81	0
7	194000	35.91	0
7	194564	36.01	0
7	195120	36.11	0
7	195676	36.21	0
7	196232	36.31	0
7	196788	36.41	0
7	197344	36.51	0
7	197900	36.61	0
7	198456	36.71	0
7	199012	36.81	0
7	199568	36.91	0
7	200132	37.01	0
7	200688	37.11	0
7	201244	37.21	0
7	201800	37.31	0
7	202356	37.41	0
7	202912	37.51	0
7	203468	37.61	0
7	204024	37.71	0
7	204580	37.81	0
7	205136	37.91	0
7	205700	38.01	0
7	206256	38.11	0
7	206812	38.21	0
7	207368	38.31	0
7	207924	38.41	0
7	208480	38.51	0
7	209036	38.61	0
7	209592	38.71	0
7	210148	38.81	0
7	210704	38.91	0
7	211268	39.01	0
7	211824	39.11	0
7	212380	39.21	0
7	212936	39.31	0
7	213492	39.41	0
7	214048	39.51	0
7	214604	39.61	0
7	215160	39.71	0
7	215716	39.81	0
7	216272	39.91	0
7	216836	40.01	0
7	217392	40.11	0
7	217948	40.21	0
7	218504	40.31	0
7	219060	40.41	0
7	219616	40.51	0
7	220172	40.61	0
7	220728	40.71	0
7	221284	40.81	0
7	221840	40.91	0
7	222404	41.01	0
7	222960	41.11	0
7	223516	41.21	0
7	224072	41.31	0
7	224628	41.41	0
7	225184	41.51	0
7	225740	41.61	0
7	226296	41.71	0
7	226852	41.81	0
7	227408	41.91	0
7	227972	42.01	0
7	228528	42.11	0
7	229084	42.21	0
7	229640	42.31	0
7	230196	42.41	0
7	230752	42.51	0
7	231308	42.61	0
7	231864	42.71	0
7	232420	42.81	0
7	232976	42.91	0
7	233540	43.01	0
7	234096	43.11	0
7	234652	43.21	0
7	235208	43.31	0
7	235764	43.41	0
7	236320	43.51	0
7	236876	43.61	0
7	237432	43.71	0
7	237988	43.81	0
7	238544	43.91	0
7	239108	44.01	0
7	239664	44.11	0
7	240220	44.21	0
7	240776	44.31	0
7	241332	44.41	0
7	241888	44.51	0
7	242444	44.61	0
7	243000	44.71	0
7	243556	44.81	0
7	244112	44.91	0
7	244676	45.01	0
7	245232	45.11	0
7	245788	45.21	0
7	246344	45.31	0
7	246900	45.41	0
7	247456	45.51	0
7	248012	45.61	0
7	248568	45.71	0
7	249124	45.81	0
7	249680	45.91	0
7	250244	46.01	0
7	250800	46.11	0
7	251356	46.21	0
7	251912	46.31	0
7	252468	46.41	0
7	253024	46.51	0
7	253580	46.61	0
7	254136	46.71	0
7	254692	46.81	0
7	255248	46.91	0
7	255812	47.01	0
7	256368	47.11	0
7	256924	47.21	0
7	257480	47.31	0
7	258036	47.41	0
7	258592	47.51	0
7	259148	47.61	0
7	259704	47.71	0
7	260260	47.81	0
7	260816	47.91	0
7	261380	48.01	0
7	261936	48.11	0
7	262492	48.21	0
7	263048	48.31	0
7	263604	48.41	0
7	264160	48.51	0
7	264716	48.61	0
7	265272	48.71	0
7	265828	48.81	0
7	266384	48.91	0
7	266948	49.01	0
7	267504	49.11	0
7	268060	49.21	0
7	268616	49.31	0
7	269172	49.41	0
7	269728	49.51	0
7	270284	49.61	0
7	270840	49.71	0
7	271396	49.81	0
7	271952	49.91	0
7	272516	50.01	0
7	273072	50.11	0
7	273628	50.21	0
7	274184	50.31	0
7	274740	50.41	0
7	275296	50.51	0
7	275852	50.61	0
7	276408	50.71	0
7	276964	50.81	0
7	277520	50.91	0
7	278084	51.01	0
7	278640	51.11	0
7	279196	51.21	0
7	279752	51.31	0
7	280308	51.41	0
7	280864	51.51	0
7	281420	51.61	0
7	281976	51.71	0
7	282532	51.81	0
7	283088	51.91	0
7	283652	52.01	0
7	284208	52.11	0
7	284764	52.21	0
7	285320	52.31	0
7	285876	52.41	0
7	286432	52.51	0
7	286988	52.61	0
7	287544	52.71	0
7	288100	52.81	0
7	288656	52.91	0
7	289220	53.01	0
7	289776	53.11	0
7	290332	53.21	0
7	290888	53.31	0
7	291444	53.41	0
7	292000	53.51	0
7	292556	53.61	0
7	293112	53.71	0
7	293668	53.81	0
7	294224	53.91	0
7	294788	54.01	0
7	295344	54.11	0
7	295900	54.21	0
7	296456	54.31	0
7	297012	54.41	0
7	297568	54.51	0
7	298124	54.61	0
7	298680	54.71	0
7	299236	54.81	0
7	299792	54.91	0
7	300356	55.01	0
7	300912	55.11	0
7	301468	55.21	0
7	302024	55.31	0
7	302580	55.41	0
7	303136	55.51	0
7	303692	55.61	0
7	304248	55.71	0
7	304804	55.81	0
7	305360	55.91	0
7	305924	56.01	0
7	306480	56.11	0
7	307036	56.21	0
7	307592	56.31	0
7	308148	56.41	0
7	308704	56.51	0
7	309260	56.61	0
7	309816	56.71	0
7	310372	56.81	0
7	310928	56.91	0
7	311492	57.01	0
7	312048	57.11	0
7	312604	57.21	0
7	313160	57.31	0
7	313716	57.41	0
7	314272	57.51	0
7	314828	57.61	0
7	315384	57.71	0
7	315940	57.81	0
7	316496	57.91	0
7	317060	58.01	0
7	317616	58.11	0
7	318172	58.21	0
7	318728	58.31	0
7	319284	58.41	0
7	319840	58.51	0
7	320396	58.61	0
7	320952	58.71	0
7	321508	58.81	0
7	322064	58.91	0
7	322628	59.01	0
7	323184	59.11	0
7	323740	59.21	0
7	324296	59.31	0
7	324852	59.41	0
7	325408	59.51	0
7	325964	59.61	0
7	326520	59.71	0
7	327076	59.81	0
7	327632	59.91	0
6	233	1.11	242.45
6	790	1.21	242.45
6	1346	1.31	242.45
6	1903	1.41	242.45
6	2460	1.51	242.45
6	3016	1.61	242.45
6	3572	1.71	242.45
6	4129	1.81	242.45
6	4685	1.91	242.45
6	5252	2.01	242.45
6	5808	2.11	242.45
6	6364	2.21	242.45
6	6920	2.31	242.45
6	7476	2.41	242.45
6	8032	2.51	242.45
6	8588	2.61	242.45
6	9144	2.71	242.45
6	9700	2.81	242.45
6	10256	2.91	242.45
6	10820	3.01	242.45
6	11376	3.11	242.45
6	11932	3.21	242.45
6	12488	3.31	242.45
6	13044	3.41	242.45
6	13600	3.51	242.45
6	14156	3.61	242.45
6	14712	3.71	242.45
6	15268	3.81	242.45
6	15824	3.91	242.45
6	16388	4.01	242.45
6	16944	4.11	242.45
6	17500	4.21	242.45
6	18056	4.31	242.45
6	18612	4.41	242.45
6	19168	4.51	242.45
6	19724	4.61	242.45
6	20280	4.71	242.45
6	20836	4.81	242.45
6	21392	4.91	242.45
6	21956	5.01	242.45
6	22512	5.11	242.45
6	23068	5.21	242.45
6	23624	5.31	242.45
6	24180	5.41	242.45
6	24736	5.51	242.45
6	25292	5.61	242.45
6	25848	5.71	242.45
6	26404	5.81	242.45
6	26960	5.91	242.45
6	27524	6.01	242.45
6	28080	6.11	242.45
6	28636	6.21	242.45
6	29192	6.31	242.45
6	29748	6.41	242.45
6	30304	6.51	242.45
6	30860	6.61	242.45
6	31416	6.71	242.45
6	31972	6.81	242.45
6	32528	6.91	242.45
6	33092	7.01	242.45
6	33648	7.11	242.45
6	34204	7.21	242.45
6	34760	7.31	242.45
6	35316	7.41	242.45
6	35872	7.51	242.45
6	36428	7.61	242.45
6	36984	7.71	242.45
6	37540	7.81	242.45
6	38096	7.91	242.45
6	38660	8.01	242.45
6	39216	8.11	242.45
6	39772	8.21	242.45
6	40328	8.31	242.45
6	40884	8.41	242.45
6	41440	8.51	242.45
6	41996	8.61	242.45
6	42552	8.71	242.45
6	43108	8.81	242.45
6	43664	8.91	242.45
6	44228	9.01	242.45
6	44784	9.11	242.45
6	45340	9.21	242.45
6	45896	9.31	242.45
6	46452	9.41	242.45
6	47008	9.51	242.45
6	47564	9.61	242.45
6	48120	9.71	242.45
6	48676	9.81	242.45
6	49232	9.91	242.45
6	49796	10.01	242.45
6	50352	10.11	242.45
6	50908	10.21	242.45
6	51464	10.31	242.45
6	52020	10.41	242.45
6	52576	10.51	242.45
6	53132	10.61	242.45
6	53688	10.71	242.45
6	54244	10.81	242.45
6	54800	10.91	242.45
6	55364	11.01	242.45
6	55920	11.11	242.45
6	56476	11.21	242.45
6	57032	11.31	242.45
6	57588	11.41	242.45
6	58144	11.51	242.45
6	58700	11.61	242.45
6	59256	11.71	242.45
6	59812	11.81	242.45
6	60368	11.91	242.45
6	60932	12.01	242.45
6	61488	12.11	242.45
6	62044	12.21	242.45
6	62600	12.31	242.45
6	63156	12.41	242.45
6	63712	12.51	242.45
6	64268	12.61	242.45
6	64824	12.71	242.45
6	65380	12.81	242.45
6	65936	12.91	242.45
6	66500	13.01	242.45
6	67056	13.11	242.45
6	67612	13.21	242.45
6	68168	13.31	242.45
6	68724	13.41	242.45
6	69280	13.51	242.45
6	69836	13.61	242.45
6	70392	13.71	242.45
6	70948	13.81	242.45
6	71504	13.91	242.45
6	72068	14.01	242.45
6	72624	14.11	242.45
6	73180	14.21	242.45
6	73736	14.31	242.45
6	74292	14.41	242.45
6	74848	14.51	242.45
6	75404	14.61	242.45
6	75960	14.71	242.45
6	76516	14.81	242.45
6	77072	14.91	242.45
6	77636	15.01	242.45
6	78192	15.11	242.45
6	78748	15.21	242.45
6	79304	15.31	242.45
6	79860	15.41	242.45
6	80416	15.51	242.45
6	80972	15.61	242.45
6	81528	15.71	242.45
6	82084	15.81	242.45
6	82640	15.91	242.45
6	83204	16.01	242.45
6	83760	16.11	242.45
6	84316	16.21	242.45
6	84872	16.31	242.45
6	85428	16.41	242.45
6	85984	16.51	242.45
6	86540	16.61	242.45
6	87096	16.71	242.45
6	87652	16.81	242.45
6	88208	16.91	242.45
6	88772	17.01	242.45
6	89328	17.11	242.45
6	89884	17.21	242.45
6	90440	17.31	242.45
6	90996	17.41	242.45
6	91552	17.51	242.45
6	92108	17.61	242.45
6	92664	17.71	242.45
6	93220	17.81	242.45
6	93776	17.91	242.45
6	94340	18.01	242.45
6	94896	18.11	242.45
6	95452	18.21	242.45
6	96008	18.31	242.45
6	96564	18.41	242.45
6	97120	18.51	242.45
6	97676	18.61	242.45
6	98232	18.71	242.45
6	98788	18.81	242.45
6	99344	18.91	242.45
6	99908	19.01	242.45
6	100464	19.11	242.45
6	101020	19.21	242.45
6	101576	19.31	242.45
6	102132	19.41	242.45
6	102688	19.51	242.45
6	103244	19.61	242.45
6	103800	19.71	242.45
6	104356	19.81	242.45
6	104912	19.91	242.45
6	105476	20.01	242.45
6	106032	20.11	242.45
6	106588	20.21	242.45
6	107144	20.31	242.45
6	107700	20.41	242.45
6	108256	20.51	242.45
6	108812	20.61	242.45
6	109368	20.71	242.45
6	109924	20.81	242.45
6	110480	20.91	242.45
6	111044	21.01	242.45
6	111600	21.11	242.45
6	112156	21.21	242.45
6	112712	21.31	242.45
6	113268	21.41	242.45
6	113824	21.51	242.45
6	114380	21.61	242.45
6	114936	21.71	242.45
6	115492	21.81	242.45
6	116048	21.91	242.45
6	116612	22.01	242.45
6	117168	22.11	242.45
6	117724	22.21	242.45
6	118280	22.31	242.45
6	118836	22.41	242.45
6	119392	22.51	242.45
6	119948	22.61	242.45
6	120504	22.71	242.45
6	121060	22.81	242.45
6	121616	22.91	242.45
6	122180	23.01	242.45
6	122736	23.11	242.45
6	123292	23.21	242.45
6	123848	23.31	242.45
6	124404	23.41	242.45
6	124960	23.51	242.45
6	125516	23.61	242.45
6	126072	23.71	242.45
6	126628	23.81	242.45
6	127184	23.91	242.45
6	127748	24.01	242.45
6	128304	24.11	242.45
6	128860	24.21	242.45
6	129416	24.31	242.45
6	129972	24.41	242.45
6	130528	24.51	242.45
6	131084	24.61	242.45
6	131640	24.71	242.45
6	132196	24.81	242.45
6	132752	24.91	242.45
6	133316	25.01	242.45
6	133872	25.11	242.45
6	134428	25.21	242.45
6	134984	25.31	242.45
6	135540	25.41	242.45
6	136096	25.51	242.45
6	136652	25.61	242.45
6	137208	25.71	242.45
6	137764	25.81	242.45
6	138320	25.91	242.45
6	138884	26.01	242.45
6	139440	26.11	242.45
6	139996	26.21	242.45
6	140552	26.31	242.45
6	141108	26.41	242.45
6	141664	26.51	242.45
6	142220	26.61	242.45
6	142776	26.71	242.45
6	143332	26.81	242.45
6	143888	26.91	242.45
6	144452	27.01	242.45
6	145008	27.11	242.45
6	145564	27.21	242.45
6	146120	27.31	242.45
6	146676	27.41	242.45
6	147232	27.51	242.45
6	147788	27.61	242.45
6	148344	27.71	242.45
6	148900	27.81	242.45
6	149456	27.91	242.45
6	150020	28.01	242.45
6	150576	28.11	242.45
6	151132	28.21	242.45
6	151688	28.31	242.45
6	152244	28.41	242.45
6	152800	28.51	242.45
6	153356	28.61	242.45
6	153912	28.71	242.45
6	154468	28.81	242.45
6	155024	28.91	242.45
6	155588	29.01	242.45
6	156144	29.11	242.45
6	156700	29.21	242.45
6	157256	29.31	242.45
6	157812	29.41	242.45
6	158368	29.51	242.45
6	158924	29.61	242.45
6	159480	29.71	242.45
6	160036	29.81	242.45
6	160592	29.91	242.45
6	161156	30.01	242.45
6	161712	30.11	242.45
6	162268	30.21	242.45
6	162824	30.31	242.45
6	163380	30.41	242.45
6	163936	30.51	242.45
6	164492	30.61	242.45
6	165048	30.71	242.45
6	165604	30.81	242.45
6	166160	30.91	242.45
6	166724	31.01	242.45
6	167280	31.11	242.45
6	167836	31.21	242.45
6	168392	31.31	242.45
6	168948	31.41	242.45
6	169504	31.51	242.45
6	170060	31.61	242.45
6	170616	31.71	242.45
6	171172	31.81	242.45
6	171728	31.91	242.45
6	172292	32.01	242.45
6	172848	32.11	242.45
6	173404	32.21	242.45
6	173960	32.31	242.45
6	174516	32.41	242.45
6	175072	32.51	242.45
6	175628	32.61	242.45
6	176184	32.71	242.45
6	176740	32.81	242.45
6	177296	32.91	242.45
6	177860	33.01	242.45
6	178416	33.11	242.45
6	178972	33.21	242.45
6	179528	33.31	242.45
6	180084	33.41	242.45
6	180640	33.51	242.45
6	181196	33.61	242.45
6	181752	33.71	242.45
6	182308	33.81	242.45
6	182864	33.91	242.45
6	183428	34.01	242.45
6	183984	34.11	242.45
6	184540	34.21	242.45
6	185096	34.31	242.45
6	185652	34.41	242.45
6	186208	34.51	242.45
6	186764	34.61	242.45
6	187320	34.71	242.45
6	187876	34.81	242.45
6	188432	34.91	242.45
6	188996	35.01	242.45
6	189552	35.11	242.45
6	190108	35.21	242.45
6	190664	35.31	242.45
6	191220	35.41	242.45
6	191776	35.51	242.45
6	192332	35.61	242.45
6	192888	35.71	242.45
6	193444	35.81	242.45
6	194000	35.91	242.45
6	194564	36.01	242.45
6	195120	36.11	242.45
6	195676	36.21	242.45
6	196232	36.31	242.45
6	196788	36.41	242.45
6	197344	36.51	242.45
6	197900	36.61	242.45
6	198456	36.71	242.45
6	199012	36.81	242.45
6	199568	36.91	242.45
6	200132	37.01	242.45
6	200688	37.11	242.45
6	201244	37.21	242.45
6	201800	37.31	242.45
6	202356	37.41	242.45
6	202912	37.51	242.45
6	203468	37.61	242.45
6	204024	37.71	242.45
6	204580	37.81	242.45
6	205136	37.91	242.45
6	205700	38.01	242.45
6	206256	38.11	242.45
6	206812	38.21	242.45
6	207368	38.31	242.45
6	207924	38.41	242.45
6	208480	38.51	242.45
6	209036	38.61	242.45
6	209592	38.71	242.45
6	210148	38.81	242.45
6	210704	38.91	242.45
6	211268	39.01	242.45
6	211824	39.11	242.45
6	212380	39.21	242.45
6	212936	39.31	242.45
6	213492	39.41	242.45
6	214048	39.51	242.45
6	214604	39.61	242.45
6	215160	39.71	242.45
6	215716	39.81	242.45
6	216272	39.91	242.45
6	216836	40.01	242.45
6	217392	40.11	242.45
6	217948	40.21	242.45
6	218504	40.31	242.45
6	219060	40.41	242.45
6	219616	40.51	242.45
6	220172	40.61	242.45
6	220728	40.71	242.45
6	221284	40.81	242.45
6	221840	40.91	242.45
6	222404	41.01	242.45
6	222960	41.11	242.45
6	223516	41.21	242.45
6	224072	41.31	242.45
6	224628	41.41	242.45
6	225184	41.51	242.45
6	225740	41.61	242.45
6	226296	41.71	242.45
6	226852	41.81	242.45
6	227408	41.91	242.45
6	227972	42.01	242.45
6	228528	42.11	242.45
6	229084	42.21	242.45
6	229640	42.31	242.45
6	230196	42.41	242.45
6	230752	42.51	242.45
6	231308	42.61	242.45
6	231864	42.71	242.45
6	232420	42.81	242.45
6	232976	42.91	242.45
6	233540	43.01	242.45
6	234096	43.11	242.45
6	234652	43.21	242.45
6	235208	43.31	242.45
6	235764	43.41	242.45
6	236320	43.51	242.45
6	236876	43.61	242.45
6	237432	43.71	242.45
6	237988	43.81	242.45
6	238544	43.91	242.45
6	239108	44.01	242.45
6	239664	44.11	242.45
6	240220	44.21	242.45
6	240776	44.31	242.45
6	241332	44.41	242.45
6	241888	44.51	242.45
6	242444	44.61	242.45
6	243000	44.71	242.45
6	243556	44.81	242.45
6	244112	44.91	242.45
6	244676	45.01	242.45
6	245232	45.11	242.45
6	245788	45.21	242.45
6	246344	45.31	242.45
6	246900	45.41	242.45
6	247456	45.51	242.45
6	248012	45.61	242.45
6	248568	45.71	242.45
6	249124	45.81	242.45
6	249680	45.91	242.45
6	250244	46.01	242.45
6	250800	46.11	242.45
6	251356	46.21	242.45
6	251912	46.31	242.45
6	252468	46.41	242.45
6	253024	46.51	242.45
6	253580	46.61	242.45
6	254136	46.71	242.45
6	254692	46.81	242.45
6	255248	46.91	242.45
6	255812	47.01	242.45
6	256368	47.11	242.45
6	256924	47.21	242.45
6	257480	47.31	242.45
6	258036	47.41	242.45
6	258592	47.51	242.45
6	259148	47.61	242.45
6	259704	47.71	242.45
6	260260	47.81	242.45
6	260816	47.91	242.45
6	261380	48.01	242.45
6	261936	48.11	242.45
6	262492	48.21	242.45
6	263048	48.31	242.45
6	263604	48.41	242.45
6	264160	48.51	242.45
6	264716	48.61	242.45
6	265272	48.71	242.45
6	265828	48.81	242.45
6	266384	48.91	242.45
6	266948	49.01	242.45
6	267504	49.11	242.45
6	268060	49.21	242.45
6	268616	49.31	242.45
6	269172	49.41	242.45
6	269728	49.51	242.45
6	270284	49.61	242.45
6	270840	49.71	242.45
6	271396	49.81	242.45
6	271952	49.91	242.45
6	272516	50.01	242.45
6	273072	50.11	242.45
6	273628	50.21	242.45
6	274184	50.31	242.45
6	274740	50.41	242.45
6	275296	50.51	242.45
6	275852	50.61	242.45
6	276408	50.71	242.45
6	276964	50.81	242.45
6	277520	50.91	242.45
6	278084	51.01	242.45
6	278640	51.11	242.45
6	279196	51.21	242.45
6	279752	51.31	242.45
6	280308	51.41	242.45
6	280864	51.51	242.45
6	281420	51.61	242.45
6	281976	51.71	242.45
6	282532	51.81	242.45
6	283088	51.91	242.45
6	283652	52.01	242.45
6	284208	52.11	242.45
6	284764	52.21	242.45
6	285320	52.31	242.45
6	285876	52.41	242.45
6	286432	52.51	242.45
6	286988	52.61	242.45
6	287544	52.71	242.45
6	288100	52.81	242.45
6	288656	52.91	242.45
6	289220	53.01	242.45
6	289776	53.11	242.45
6	290332	53.21	242.45
6	290888	53.31	242.45
6	291444	53.41	242.45
6	292000	53.51	242.45
6	292556	53.61	242.45
6	293112	53.71	242.45
6	293668	53.81	242.45
6	294224	53.91	242.45
6	294788	54.01	242.45
6	295344	54.11	242.45
6	295900	54.21	242.45
6	296456	54.31	242.45
6	297012	54.41	242.45
6	297568	54.51	242.45
6	298124	54.61	242.45
6	298680	54.71	242.45
6	299236	54.81	242.45
6	299792	54.91	242.45
6	300356	55.01	242.45
6	300912	55.11	242.45
6	301468	55.21	242.45
6	302024	55.31	242.45
6	302580	55.41	242.45
6	303136	55.51	242.45
6	303692	55.61	242.45
6	304248	55.71	242.45
6	304804	55.81	242.45
6	305360	55.91	242.45
6	305924	56.01	242.45
6	306480	56.11	242.45
6	307036	56.21	242.45
6	307592	56.31	242.45
6	308148	56.41	242.45
6	308704	56.51	242.45
6	309260	56.61	242.45
6	309816	56.71	242.45
6	310372	56.81	242.45
6	310928	56.91	242.45
6	311492	57.01	242.45
6	312048	57.11	242.45
6	312604	57.21	242.45
6	313160	57.31	242.45
6	313716	57.41	242.45
6	314272	57.51	242.45
6	314828	57.61	242.45
6	315384	57.71	242.45
6	315940	57.81	242.45
6	316496	57.91	242.45
6	317060	58.01	242.45
6	317616	58.11	242.45
6	318172	58.21	242.45
6	318728	58.31	242.45
6	319284	58.41	242.45
6	319840	58.51	242.45
6	320396	58.61	242.45
6	320952	58.71	242.45
6	321508	58.81	242.45
6	322064	58.91	242.45
6	322628	59.01	242.45
6	323184	59.11	242.45
6	323740	59.21	242.45
6	324296	59.31	242.45
6	324852	59.41	242.45
6	325408	59.51	242.45
6	325964	59.61	242.45
6	326520	59.71	242.45
6	327076	59.81	242.45
6	327632	59.91	242.45
5	233	1.11	2611.27
5	790	1.21	2614.05
5	1346	1.31	2616.83
5	1903	1.41	2619.6
5	2460	1.51	2622.38
5	3016	1.61	2625.16
5	3572	1.71	2627.94
5	4129	1.81	2630.72
5	4685	1.91	2633.49
5	5252	2.01	2636.27
5	5808	2.11	2639.05
5	6364	2.21	2641.83
5	6920	2.31	2644.61
5	7476	2.41	2647.38
5	8032	2.51	2650.16
5	8588	2.61	2652.94
5	9144	2.71	2655.72
5	9700	2.81	2658.49
5	10256	2.91	2661.27
5	10820	3.01	2664.05
5	11376	3.11	2666.83
5	11932	3.21	2669.61
5	12488	3.31	2672.38
5	13044	3.41	2675.16
5	13600	3.51	2677.94
5	14156	3.61	2680.72
5	14712	3.71	2683.49
5	15268	3.81	2686.27
5	15824	3.91	2689.05
5	16388	4.01	2691.83
5	16944	4.11	2694.61
5	17500	4.21	2697.38
5	18056	4.31	2700.16
5	18612	4.41	2702.94
5	19168	4.51	2705.72
5	19724	4.61	2708.49
5	20280	4.71	2711.27
5	20836	4.81	2714.05
5	21392	4.91	2716.83
5	21956	5.01	2719.61
5	22512	5.11	2722.38
5	23068	5.21	2725.16
5	23624	5.31	2727.94
5	24180	5.41	2730.72
5	24736	5.51	2733.49
5	25292	5.61	2736.27
5	25848	5.71	2739.05
5	26404	5.81	2741.83
5	26960	5.91	2744.61
5	27524	6.01	2747.38
5	28080	6.11	2750.16
5	28636	6.21	2752.94
5	29192	6.31	2755.72
5	29748	6.41	2758.49
5	30304	6.51	2761.27
5	30860	6.61	2764.05
5	31416	6.71	2766.83
5	31972	6.81	2769.61
5	32528	6.91	2772.38
5	33092	7.01	2775.16
5	33648	7.11	2777.94
5	34204	7.21	2780.72
5	34760	7.31	2783.49
5	35316	7.41	2786.27
5	35872	7.51	2789.05
5	36428	7.61	2791.83
5	36984	7.71	2794.61
5	37540	7.81	2797.38
5	38096	7.91	2800.16
5	38660	8.01	2802.94
5	39216	8.11	2805.72
5	39772	8.21	2808.49
5	40328	8.31	2811.27
5	40884	8.41	2814.05
5	41440	8.51	2816.83
5	41996	8.61	2819.61
5	42552	8.71	2822.38
5	43108	8.81	2825.16
5	43664	8.91	2827.94
5	44228	9.01	2830.72
5	44784	9.11	2833.49
5	45340	9.21	2836.27
5	45896	9.31	2839.05
5	46452	9.41	2841.83
5	47008	9.51	2844.61
5	47564	9.61	2847.38
5	48120	9.71	2850.16
5	48676	9.81	2852.94
5	49232	9.91	2855.72
5	49796	10.01	2858.49
5	50352	10.11	2861.27
5	50908	10.21	2864.05
5	51464	10.31	2866.83
5	52020	10.41	2869.61
5	52576	10.51	2872.38
5	53132	10.61	2875.16
5	53688	10.71	2877.94
5	54244	10.81	2880.72
5	54800	10.91	2883.49
5	55364	11.01	2886.27
5	55920	11.11	2889.05
5	56476	11.21	2891.83
5	57032	11.31	2894.61
5	57588	11.41	2897.38
5	58144	11.51	2900.16
5	58700	11.61	2902.94
5	59256	11.71	2905.72
5	59812	11.81	2908.49
5	60368	11.91	2911.27
5	60932	12.01	2914.05
5	61488	12.11	2916.83
5	62044	12.21	2919.61
5	62600	12.31	2922.38
5	63156	12.41	2925.16
5	63712	12.51	2927.94
5	64268	12.61	2930.72
5	64824	12.71	2933.49
5	65380	12.81	2936.27
5	65936	12.91	2939.05
5	66500	13.01	2941.83
5	67056	13.11	2944.61
5	67612	13.21	2947.38
5	68168	13.31	2950.16
5	68724	13.41	2952.94
5	69280	13.51	2955.72
5	69836	13.61	2958.49
5	70392	13.71	2961.27
5	70948	13.81	2964.05
5	71504	13.91	2966.83
5	72068	14.01	2969.61
5	72624	14.11	2972.38
5	73180	14.21	2975.16
5	73736	14.31	2977.94
5	74292	14.41	2980.72
5	74848	14.51	2983.49
5	75404	14.61	2986.27
5	75960	14.71	2989.05
5	76516	14.81	2991.83
5	77072	14.91	2994.61
5	77636	15.01	2997.38
5	78192	15.11	3000.16
5	78748	15.21	3002.94
5	79304	15.31	3005.72
5	79860	15.41	3008.49
5	80416	15.51	3011.27
5	80972	15.61	3014.05
5	81528	15.71	3016.83
5	82084	15.81	3019.61
5	82640	15.91	3022.38
5	83204	16.01	3025.16
5	83760	16.11	3027.94
5	84316	16.21	3030.72
5	84872	16.31	3033.49
5	85428	16.41	3036.27
5	85984	16.51	3039.05
5	86540	16.61	3041.83
5	87096	16.71	3044.61
5	87652	16.81	3047.38
5	88208	16.91	3050.16
5	88772	17.01	3052.94
5	89328	17.11	3055.72
5	89884	17.21	3058.49
5	90440	17.31	3061.27
5	90996	17.41	3064.05
5	91552	17.51	3066.83
5	92108	17.61	3069.61
5	92664	17.71	3072.38
5	93220	17.81	3075.16
5	93776	17.91	3077.94
5	94340	18.01	3080.72
5	94896	18.11	3083.49
5	95452	18.21	3086.27
5	96008	18.31	3089.05
5	96564	18.41	3091.83
5	97120	18.51	3094.61
5	97676	18.61	3097.38
5	98232	18.71	3100.16
5	98788	18.81	3102.94
5	99344	18.91	3105.72
5	99908	19.01	3108.49
5	100464	19.11	3111.27
5	101020	19.21	3114.05
5	101576	19.31	3116.83
5	102132	19.41	3119.61
5	102688	19.51	3122.38
5	103244	19.61	3125.16
5	103800	19.71	3127.94
5	104356	19.81	3130.72
5	104912	19.91	3133.49
5	105476	20.01	3136.27
5	106032	20.11	3139.05
5	106588	20.21	3141.83
5	107144	20.31	3144.61
5	107700	20.41	3147.38
5	108256	20.51	3150.16
5	108812	20.61	3152.94
5	109368	20.71	3155.72
5	109924	20.81	3158.49
5	110480	20.91	3161.27
5	111044	21.01	3164.05
5	111600	21.11	3166.83
5	112156	21.21	3169.61
5	112712	21.31	3172.38
5	113268	21.41	3175.16
5	113824	21.51	3177.94
5	114380	21.61	3180.72
5	114936	21.71	3183.49
5	115492	21.81	3186.27
5	116048	21.91	3189.05
5	116612	22.01	3191.83
5	117168	22.11	3194.61
5	117724	22.21	3197.38
5	118280	22.31	3200.16
5	118836	22.41	3202.94
5	119392	22.51	3205.72
5	119948	22.61	3208.49
5	120504	22.71	3211.27
5	121060	22.81	3214.05
5	121616	22.91	3216.83
5	122180	23.01	3219.61
5	122736	23.11	3222.38
5	123292	23.21	3225.16
5	123848	23.31	3227.94
5	124404	23.41	3230.72
5	124960	23.51	3233.49
5	125516	23.61	3236.27
5	126072	23.71	3239.05
5	126628	23.81	3241.83
5	127184	23.91	3244.61
5	127748	24.01	3247.38
5	128304	24.11	3250.16
5	128860	24.21	3252.94
5	129416	24.31	3255.72
5	129972	24.41	3258.49
5	130528	24.51	3261.27
5	131084	24.61	3264.05
5	131640	24.71	3266.83
5	132196	24.81	3269.61
5	132752	24.91	3272.38
5	133316	25.01	3275.16
5	133872	25.11	3277.94
5	134428	25.21	3280.72
5	134984	25.31	3283.49
5	135540	25.41	3286.27
5	136096	25.51	3289.05
5	136652	25.61	3291.83
5	137208	25.71	3294.61
5	137764	25.81	3297.38
5	138320	25.91	3300.16
5	138884	26.01	3302.94
5	139440	26.11	3305.72
5	139996	26.21	3308.49
5	140552	26.31	3311.27
5	141108	26.41	3314.05
5	141664	26.51	3316.83
5	142220	26.61	3319.61
5	142776	26.71	3322.38
5	143332	26.81	3325.16
5	143888	26.91	3327.94
5	144452	27.01	3330.72
5	145008	27.11	3333.49
5	145564	27.21	3336.27
5	146120	27.31	3339.05
5	146676	27.41	3341.83
5	147232	27.51	3344.61
5	147788	27.61	3347.38
5	148344	27.71	3350.16
5	148900	27.81	3352.94
5	149456	27.91	3355.72
5	150020	28.01	3358.5
5	150576	28.11	3361.27
5	151132	28.21	3364.05
5	151688	28.31	3366.83
5	152244	28.41	3369.61
5	152800	28.51	3372.38
5	153356	28.61	3375.16
5	153912	28.71	3377.94
5	154468	28.81	3380.72
5	155024	28.91	3383.5
5	155588	29.01	3386.27
5	156144	29.11	3389.05
5	156700	29.21	3391.83
5	157256	29.31	3394.61
5	157812	29.41	3397.38
5	158368	29.51	3400.16
5	158924	29.61	3402.94
5	159480	29.71	3405.72
5	160036	29.81	3408.5
5	160592	29.91	3411.27
5	161156	30.01	3414.05
5	161712	30.11	3416.83
5	162268	30.21	3419.61
5	162824	30.31	3422.38
5	163380	30.41	3425.16
5	163936	30.51	3427.94
5	164492	30.61	3430.72
5	165048	30.71	3433.5
5	165604	30.81	3436.27
5	166160	30.91	3439.05
5	166724	31.01	3441.83
5	167280	31.11	3444.61
5	167836	31.21	3447.38
5	168392	31.31	3450.16
5	168948	31.41	3452.94
5	169504	31.51	3455.72
5	170060	31.61	3458.5
5	170616	31.71	3461.27
5	171172	31.81	3464.05
5	171728	31.91	3466.83
5	172292	32.01	3469.61
5	172848	32.11	3472.38
5	173404	32.21	3475.16
5	173960	32.31	3477.94
5	174516	32.41	3480.72
5	175072	32.51	3483.5
5	175628	32.61	3486.27
5	176184	32.71	3489.05
5	176740	32.81	3491.83
5	177296	32.91	3494.61
5	177860	33.01	3497.38
5	178416	33.11	3500.16
5	178972	33.21	3502.94
5	179528	33.31	3505.72
5	180084	33.41	3508.5
5	180640	33.51	3511.27
5	181196	33.61	3514.05
5	181752	33.71	3516.83
5	182308	33.81	3519.61
5	182864	33.91	3522.38
5	183428	34.01	3525.16
5	183984	34.11	3527.94
5	184540	34.21	3530.72
5	185096	34.31	3533.5
5	185652	34.41	3536.27
5	186208	34.51	3539.05
5	186764	34.61	3541.83
5	187320	34.71	3544.61
5	187876	34.81	3547.38
5	188432	34.91	3550.16
5	188996	35.01	3552.94
5	189552	35.11	3555.72
5	190108	35.21	3558.5
5	190664	35.31	3561.27
5	191220	35.41	3564.05
5	191776	35.51	3566.83
5	192332	35.61	3569.61
5	192888	35.71	3572.38
5	193444	35.81	3575.16
5	194000	35.91	3577.94
5	194564	36.01	3580.72
5	195120	36.11	3583.5
5	195676	36.21	3586.27
5	196232	36.31	3589.05
5	196788	36.41	3591.83
5	197344	36.51	3594.61
5	197900	36.61	3597.38
5	198456	36.71	3600.16
5	199012	36.81	3602.94
5	199568	36.91	3605.72
5	200132	37.01	3608.5
5	200688	37.11	3611.27
5	201244	37.21	3614.05
5	201800	37.31	3616.83
5	202356	37.41	3619.61
5	202912	37.51	3622.38
5	203468	37.61	3625.16
5	204024	37.71	3627.94
5	204580	37.81	3630.72
5	205136	37.91	3633.5
5	205700	38.01	3636.27
5	206256	38.11	3639.05
5	206812	38.21	3641.83
5	207368	38.31	3644.61
5	207924	38.41	3647.38
5	208480	38.51	3650.16
5	209036	38.61	3652.94
5	209592	38.71	3655.72
5	210148	38.81	3658.5
5	210704	38.91	3661.27
5	211268	39.01	3664.05
5	211824	39.11	3666.83
5	212380	39.21	3669.61
5	212936	39.31	3672.38
5	213492	39.41	3675.16
5	214048	39.51	3677.94
5	214604	39.61	3680.72
5	215160	39.71	3683.5
5	215716	39.81	3686.27
5	216272	39.91	3689.05
5	216836	40.01	3691.83
5	217392	40.11	3694.61
5	217948	40.21	3697.38
5	218504	40.31	3700.16
5	219060	40.41	3702.94
5	219616	40.51	3705.72
5	220172	40.61	3708.5
5	220728	40.71	3711.27
5	221284	40.81	3714.05
5	221840	40.91	3716.83
5	222404	41.01	3719.61
5	222960	41.11	3722.38
5	223516	41.21	3725.16
5	224072	41.31	3727.94
5	224628	41.41	3730.72
5	225184	41.51	3733.5
5	225740	41.61	3736.27
5	226296	41.71	3739.05
5	226852	41.81	3741.83
5	227408	41.91	3744.61
5	227972	42.01	3747.38
5	228528	42.11	3750.16
5	229084	42.21	3752.94
5	229640	42.31	3755.72
5	230196	42.41	3758.5
5	230752	42.51	3761.27
5	231308	42.61	3764.05
5	231864	42.71	3766.83
5	232420	42.81	3769.61
5	232976	42.91	3772.38
5	233540	43.01	3775.16
5	234096	43.11	3777.94
5	234652	43.21	3780.72
5	235208	43.31	3783.5
5	235764	43.41	3786.27
5	236320	43.51	3789.05
5	236876	43.61	3791.83
5	237432	43.71	3794.61
5	237988	43.81	3797.38
5	238544	43.91	3800.16
5	239108	44.01	3802.94
5	239664	44.11	3805.72
5	240220	44.21	3808.5
5	240776	44.31	3811.27
5	241332	44.41	3814.05
5	241888	44.51	3816.83
5	242444	44.61	3819.61
5	243000	44.71	3822.38
5	243556	44.81	3825.16
5	244112	44.91	3827.94
5	244676	45.01	3830.72
5	245232	45.11	3833.5
5	245788	45.21	3836.27
5	246344	45.31	3839.05
5	246900	45.41	3841.83
5	247456	45.51	3844.61
5	248012	45.61	3847.38
5	248568	45.71	3850.16
5	249124	45.81	3852.94
5	249680	45.91	3855.72
5	250244	46.01	3858.5
5	250800	46.11	3861.27
5	251356	46.21	3864.05
5	251912	46.31	3866.83
5	252468	46.41	3869.61
5	253024	46.51	3872.38
5	253580	46.61	3875.16
5	254136	46.71	3877.94
5	254692	46.81	3880.72
5	255248	46.91	3883.5
5	255812	47.01	3886.27
5	256368	47.11	3889.05
5	256924	47.21	3891.83
5	257480	47.31	3894.61
5	258036	47.41	3897.38
5	258592	47.51	3900.16
5	259148	47.61	3902.94
5	259704	47.71	3905.72
5	260260	47.81	3908.5
5	260816	47.91	3911.27
5	261380	48.01	3914.05
5	261936	48.11	3916.83
5	262492	48.21	3919.61
5	263048	48.31	3922.38
5	263604	48.41	3925.16
5	264160	48.51	3927.94
5	264716	48.61	3930.72
5	265272	48.71	3933.5
5	265828	48.81	3936.27
5	266384	48.91	3939.05
5	266948	49.01	3941.83
5	267504	49.11	3944.61
5	268060	49.21	3947.38
5	268616	49.31	3950.16
5	269172	49.41	3952.94
5	269728	49.51	3955.72
5	270284	49.61	3958.5
5	270840	49.71	3961.27
5	271396	49.81	3964.05
5	271952	49.91	3966.83
5	272516	50.01	3969.61
5	273072	50.11	3972.38
5	273628	50.21	3975.16
5	274184	50.31	3977.94
5	274740	50.41	3980.72
5	275296	50.51	3983.5
5	275852	50.61	3986.27
5	276408	50.71	3989.05
5	276964	50.81	3991.83
5	277520	50.91	3994.61
5	278084	51.01	3997.38
5	278640	51.11	4000.16
5	279196	51.21	4002.94
5	279752	51.31	4005.72
5	280308	51.41	4008.5
5	280864	51.51	4011.27
5	281420	51.61	4014.05
5	281976	51.71	4016.83
5	282532	51.81	4019.61
5	283088	51.91	4022.38
5	283652	52.01	4025.16
5	284208	52.11	4027.94
5	284764	52.21	4030.72
5	285320	52.31	4033.5
5	285876	52.41	4036.27
5	286432	52.51	4039.05
5	286988	52.61	4041.83
5	287544	52.71	4044.61
5	288100	52.81	4047.38
5	288656	52.91	4050.16
5	289220	53.01	4052.94
5	289776	53.11	4055.72
5	290332	53.21	4058.5
5	290888	53.31	4061.27
5	291444	53.41	4064.05
5	292000	53.51	4066.83
5	292556	53.61	4069.61
5	293112	53.71	4072.38
5	293668	53.81	4075.16
5	294224	53.91	4077.94
5	294788	54.01	4080.72
5	295344	54.11	4083.5
5	295900	54.21	4086.27
5	296456	54.31	4089.05
5	297012	54.41	4091.83
5	297568	54.51	4094.61
5	298124	54.61	4097.38
5	298680	54.71	4100.16
5	299236	54.81	4102.94
5	299792	54.91	4105.72
5	300356	55.01	4108.5
5	300912	55.11	4111.27
5	301468	55.21	4114.05
5	302024	55.31	4116.83
5	302580	55.41	4119.61
5	303136	55.51	4122.38
5	303692	55.61	4125.16
5	304248	55.71	4127.94
5	304804	55.81	4130.72
5	305360	55.91	4133.5
5	305924	56.01	4136.27
5	306480	56.11	4139.05
5	307036	56.21	4141.83
5	307592	56.31	4144.61
5	308148	56.41	4147.38
5	308704	56.51	4150.16
5	309260	56.61	4152.94
5	309816	56.71	4155.72
5	310372	56.81	4158.5
5	310928	56.91	4161.27
5	311492	57.01	4164.05
5	312048	57.11	4166.83
5	312604	57.21	4169.61
5	313160	57.31	4172.38
5	313716	57.41	4175.16
5	314272	57.51	4177.94
5	314828	57.61	4180.72
5	315384	57.71	4183.5
5	315940	57.81	4186.27
5	316496	57.91	4189.05
5	317060	58.01	4191.83
5	317616	58.11	4194.61
5	318172	58.21	4197.38
5	318728	58.31	4200.16
5	319284	58.41	4202.94
5	319840	58.51	4205.72
5	320396	58.61	4208.5
5	320952	58.71	4211.27
5	321508	58.81	4214.05
5	322064	58.91	4216.83
5	322628	59.01	4219.61
5	323184	59.11	4222.38
5	323740	59.21	4225.16
5	324296	59.31	4227.94
5	324852	59.41	4230.72
5	325408	59.51	4233.5
5	325964	59.61	4236.27
5	326520	59.71	4239.05
5	327076	59.81	4241.83
5	327632	59.91	4244.61
4	233	1.11	27.78
4	790	1.21	27.7799
4	1346	1.31	27.7798
4	1903	1.41	27.7797
4	2460	1.51	27.7796
4	3016	1.61	27.7795
4	3572	1.71	27.7794
4	4129	1.81	27.7792
4	4685	1.91	27.7791
4	5252	2.01	27.7789
4	5808	2.11	27.7788
4	6364	2.21	27.7787
4	6920	2.31	27.7785
4	7476	2.41	27.7784
4	8032	2.51	27.7783
4	8588	2.61	27.7782
4	9144	2.71	27.7782
4	9700	2.81	27.7781
4	10256	2.91	27.778
4	10820	3.01	27.7779
4	11376	3.11	27.7779
4	11932	3.21	27.7779
4	12488	3.31	27.7778
4	13044	3.41	27.7778
4	13600	3.51	27.7778
4	14156	3.61	27.7777
4	14712	3.71	27.7777
4	15268	3.81	27.7777
4	15824	3.91	27.7777
4	16388	4.01	27.7777
4	16944	4.11	27.7777
4	17500	4.21	27.7777
4	18056	4.31	27.7777
4	18612	4.41	27.7777
4	19168	4.51	27.7777
4	19724	4.61	27.7777
4	20280	4.71	27.7777
4	20836	4.81	27.7777
4	21392	4.91	27.7777
4	21956	5.01	27.7777
4	22512	5.11	27.7777
4	23068	5.21	27.7778
4	23624	5.31	27.7778
4	24180	5.41	27.7778
4	24736	5.51	27.7778
4	25292	5.61	27.7778
4	25848	5.71	27.7778
4	26404	5.81	27.7778
4	26960	5.91	27.7778
4	27524	6.01	27.7778
4	28080	6.11	27.7778
4	28636	6.21	27.7778
4	29192	6.31	27.7778
4	29748	6.41	27.7778
4	30304	6.51	27.7778
4	30860	6.61	27.7778
4	31416	6.71	27.7778
4	31972	6.81	27.7778
4	32528	6.91	27.7778
4	33092	7.01	27.7778
4	33648	7.11	27.7778
4	34204	7.21	27.7778
4	34760	7.31	27.7778
4	35316	7.41	27.7778
4	35872	7.51	27.7778
4	36428	7.61	27.7778
4	36984	7.71	27.7778
4	37540	7.81	27.7778
4	38096	7.91	27.7778
4	38660	8.01	27.7778
4	39216	8.11	27.7778
4	39772	8.21	27.7778
4	40328	8.31	27.7778
4	40884	8.41	27.7778
4	41440	8.51	27.7778
4	41996	8.61	27.7778
4	42552	8.71	27.7778
4	43108	8.81	27.7778
4	43664	8.91	27.7778
4	44228	9.01	27.7778
4	44784	9.11	27.7778
4	45340	9.21	27.7778
4	45896	9.31	27.7778
4	46452	9.41	27.7778
4	47008	9.51	27.7778
4	47564	9.61	27.7778
4	48120	9.71	27.7778
4	48676	9.81	27.7778
4	49232	9.91	27.7778
4	49796	10.01	27.7778
4	50352	10.11	27.7778
4	50908	10.21	27.7778
4	51464	10.31	27.7778
4	52020	10.41	27.7778
4	52576	10.51	27.7778
4	53132	10.61	27.7778
4	53688	10.71	27.7778
4	54244	10.81	27.7778
4	54800	10.91	27.7778
4	55364	11.01	27.7778
4	55920	11.11	27.7778
4	56476	11.21	27.7778
4	57032	11.31	27.7778
4	57588	11.41	27.7778
4	58144	11.51	27.7778
4	58700	11.61	27.7778
4	59256	11.71	27.7778
4	59812	11.81	27.7778
4	60368	11.91	27.7778
4	60932	12.01	27.7778
4	61488	12.11	27.7778
4	62044	12.21	27.7778
4	62600	12.31	27.7778
4	63156	12.41	27.7778
4	63712	12.51	27.7778
4	64268	12.61	27.7778
4	64824	12.71	27.7778
4	65380	12.81	27.7778
4	65936	12.91	27.7778
4	66500	13.01	27.7778
4	67056	13.11	27.7778
4	67612	13.21	27.7778
4	68168	13.31	27.7778
4	68724	13.41	27.7778
4	69280	13.51	27.7778
4	69836	13.61	27.7778
4	70392	13.71	27.7778
4	70948	13.81	27.7778
4	71504	13.91	27.7778
4	72068	14.01	27.7778
4	72624	14.11	27.7778
4	73180	14.21	27.7778
4	73736	14.31	27.7778
4	74292	14.41	27.7778
4	74848	14.51	27.7778
4	75404	14.61	27.7778
4	75960	14.71	27.7778
4	76516	14.81	27.7778
4	77072	14.91	27.7778
4	77636	15.01	27.7778
4	78192	15.11	27.7778
4	78748	15.21	27.7778
4	79304	15.31	27.7778
4	79860	15.41	27.7778
4	80416	15.51	27.7778
4	80972	15.61	27.7778
4	81528	15.71	27.7778
4	82084	15.81	27.7778
4	82640	15.91	27.7778
4	83204	16.01	27.7778
4	83760	16.11	27.7778
4	84316	16.21	27.7778
4	84872	16.31	27.7778
4	85428	16.41	27.7778
4	85984	16.51	27.7778
4	86540	16.61	27.7778
4	87096	16.71	27.7778
4	87652	16.81	27.7778
4	88208	16.91	27.7778
4	88772	17.01	27.7778
4	89328	17.11	27.7778
4	89884	17.21	27.7778
4	90440	17.31	27.7778
4	90996	17.41	27.7778
4	91552	17.51	27.7778
4	92108	17.61	27.7778
4	92664	17.71	27.7778
4	93220	17.81	27.7778
4	93776	17.91	27.7778
4	94340	18.01	27.7778
4	94896	18.11	27.7778
4	95452	18.21	27.7778
4	96008	18.31	27.7778
4	96564	18.41	27.7778
4	97120	18.51	27.7778
4	97676	18.61	27.7778
4	98232	18.71	27.7778
4	98788	18.81	27.7778
4	99344	18.91	27.7778
4	99908	19.01	27.7778
4	100464	19.11	27.7778
4	101020	19.21	27.7778
4	101576	19.31	27.7778
4	102132	19.41	27.7778
4	102688	19.51	27.7778
4	103244	19.61	27.7778
4	103800	19.71	27.7778
4	104356	19.81	27.7778
4	104912	19.91	27.7778
4	105476	20.01	27.7778
4	106032	20.11	27.7778
4	106588	20.21	27.7778
4	107144	20.31	27.7778
4	107700	20.41	27.7778
4	108256	20.51	27.7778
4	108812	20.61	27.7778
4	109368	20.71	27.7778
4	109924	20.81	27.7778
4	110480	20.91	27.7778
4	111044	21.01	27.7778
4	111600	21.11	27.7778
4	112156	21.21	27.7778
4	112712	21.31	27.7778
4	113268	21.41	27.7778
4	113824	21.51	27.7778
4	114380	21.61	27.7778
4	114936	21.71	27.7778
4	115492	21.81	27.7778
4	116048	21.91	27.7778
4	116612	22.01	27.7778
4	117168	22.11	27.7778
4	117724	22.21	27.7778
4	118280	22.31	27.7778
4	118836	22.41	27.7778
4	119392	22.51	27.7778
4	119948	22.61	27.7778
4	120504	22.71	27.7778
4	121060	22.81	27.7778
4	121616	22.91	27.7778
4	122180	23.01	27.7778
4	122736	23.11	27.7778
4	123292	23.21	27.7778
4	123848	23.31	27.7778
4	124404	23.41	27.7778
4	124960	23.51	27.7778
4	125516	23.61	27.7778
4	126072	23.71	27.7778
4	126628	23.81	27.7778
4	127184	23.91	27.7778
4	127748	24.01	27.7778
4	128304	24.11	27.7778
4	128860	24.21	27.7778
4	129416	24.31	27.7778
4	129972	24.41	27.7778
4	130528	24.51	27.7778
4	131084	24.61	27.7778
4	131640	24.71	27.7778
4	132196	24.81	27.7778
4	132752	24.91	27.7778
4	133316	25.01	27.7778
4	133872	25.11	27.7778
4	134428	25.21	27.7778
4	134984	25.31	27.7778
4	135540	25.41	27.7778
4	136096	25.51	27.7778
4	136652	25.61	27.7778
4	137208	25.71	27.7778
4	137764	25.81	27.7778
4	138320	25.91	27.7778
4	138884	26.01	27.7778
4	139440	26.11	27.7778
4	139996	26.21	27.7778
4	140552	26.31	27.7778
4	141108	26.41	27.7778
4	141664	26.51	27.7778
4	142220	26.61	27.7778
4	142776	26.71	27.7778
4	143332	26.81	27.7778
4	143888	26.91	27.7778
4	144452	27.01	27.7778
4	145008	27.11	27.7778
4	145564	27.21	27.7778
4	146120	27.31	27.7778
4	146676	27.41	27.7778
4	147232	27.51	27.7778
4	147788	27.61	27.7778
4	148344	27.71	27.7778
4	148900	27.81	27.7778
4	149456	27.91	27.7778
4	150020	28.01	27.7778
4	150576	28.11	27.7778
4	151132	28.21	27.7778
4	151688	28.31	27.7778
4	152244	28.41	27.7778
4	152800	28.51	27.7778
4	153356	28.61	27.7778
4	153912	28.71	27.7778
4	154468	28.81	27.7778
4	155024	28.91	27.7778
4	155588	29.01	27.7778
4	156144	29.11	27.7778
4	156700	29.21	27.7778
4	157256	29.31	27.7778
4	157812	29.41	27.7778
4	158368	29.51	27.7778
4	158924	29.61	27.7778
4	159480	29.71	27.7778
4	160036	29.81	27.7778
4	160592	29.91	27.7778
4	161156	30.01	27.7778
4	161712	30.11	27.7778
4	162268	30.21	27.7778
4	162824	30.31	27.7778
4	163380	30.41	27.7778
4	163936	30.51	27.7778
4	164492	30.61	27.7778
4	165048	30.71	27.7778
4	165604	30.81	27.7778
4	166160	30.91	27.7778
4	166724	31.01	27.7778
4	167280	31.11	27.7778
4	167836	31.21	27.7778
4	168392	31.31	27.7778
4	168948	31.41	27.7778
4	169504	31.51	27.7778
4	170060	31.61	27.7778
4	170616	31.71	27.7778
4	171172	31.81	27.7778
4	171728	31.91	27.7778
4	172292	32.01	27.7778
4	172848	32.11	27.7778
4	173404	32.21	27.7778
4	173960	32.31	27.7778
4	174516	32.41	27.7778
4	175072	32.51	27.7778
4	175628	32.61	27.7778
4	176184	32.71	27.7778
4	176740	32.81	27.7778
4	177296	32.91	27.7778
4	177860	33.01	27.7778
4	178416	33.11	27.7778
4	178972	33.21	27.7778
4	179528	33.31	27.7778
4	180084	33.41	27.7778
4	180640	33.51	27.7778
4	181196	33.61	27.7778
4	181752	33.71	27.7778
4	182308	33.81	27.7778
4	182864	33.91	27.7778
4	183428	34.01	27.7778
4	183984	34.11	27.7778
4	184540	34.21	27.7778
4	185096	34.31	27.7778
4	185652	34.41	27.7778
4	186208	34.51	27.7778
4	186764	34.61	27.7778
4	187320	34.71	27.7778
4	187876	34.81	27.7778
4	188432	34.91	27.7778
4	188996	35.01	27.7778
4	189552	35.11	27.7778
4	190108	35.21	27.7778
4	190664	35.31	27.7778
4	191220	35.41	27.7778
4	191776	35.51	27.7778
4	192332	35.61	27.7778
4	192888	35.71	27.7778
4	193444	35.81	27.7778
4	194000	35.91	27.7778
4	194564	36.01	27.7778
4	195120	36.11	27.7778
4	195676	36.21	27.7778
4	196232	36.31	27.7778
4	196788	36.41	27.7778
4	197344	36.51	27.7778
4	197900	36.61	27.7778
4	198456	36.71	27.7778
4	199012	36.81	27.7778
4	199568	36.91	27.7778
4	200132	37.01	27.7778
4	200688	37.11	27.7778
4	201244	37.21	27.7778
4	201800	37.31	27.7778
4	202356	37.41	27.7778
4	202912	37.51	27.7778
4	203468	37.61	27.7778
4	204024	37.71	27.7778
4	204580	37.81	27.7778
4	205136	37.91	27.7778
4	205700	38.01	27.7778
4	206256	38.11	27.7778
4	206812	38.21	27.7778
4	207368	38.31	27.7778
4	207924	38.41	27.7778
4	208480	38.51	27.7778
4	209036	38.61	27.7778
4	209592	38.71	27.7778
4	210148	38.81	27.7778
4	210704	38.91	27.7778
4	211268	39.01	27.7778
4	211824	39.11	27.7778
4	212380	39.21	27.7778
4	212936	39.31	27.7778
4	213492	39.41	27.7778
4	214048	39.51	27.7778
4	214604	39.61	27.7778
4	215160	39.71	27.7778
4	215716	39.81	27.7778
4	216272	39.91	27.7778
4	216836	40.01	27.7778
4	217392	40.11	27.7778
4	217948	40.21	27.7778
4	218504	40.31	27.7778
4	219060	40.41	27.7778
4	219616	40.51	27.7778
4	220172	40.61	27.7778
4	220728	40.71	27.7778
4	221284	40.81	27.7778
4	221840	40.91	27.7778
4	222404	41.01	27.7778
4	222960	41.11	27.7778
4	223516	41.21	27.7778
4	224072	41.31	27.7778
4	224628	41.41	27.7778
4	225184	41.51	27.7778
4	225740	41.61	27.7778
4	226296	41.71	27.7778
4	226852	41.81	27.7778
4	227408	41.91	27.7778
4	227972	42.01	27.7778
4	228528	42.11	27.7778
4	229084	42.21	27.7778
4	229640	42.31	27.7778
4	230196	42.41	27.7778
4	230752	42.51	27.7778
4	231308	42.61	27.7778
4	231864	42.71	27.7778
4	232420	42.81	27.7778
4	232976	42.91	27.7778
4	233540	43.01	27.7778
4	234096	43.11	27.7778
4	234652	43.21	27.7778
4	235208	43.31	27.7778
4	235764	43.41	27.7778
4	236320	43.51	27.7778
4	236876	43.61	27.7778
4	237432	43.71	27.7778
4	237988	43.81	27.7778
4	238544	43.91	27.7778
4	239108	44.01	27.7778
4	239664	44.11	27.7778
4	240220	44.21	27.7778
4	240776	44.31	27.7778
4	241332	44.41	27.7778
4	241888	44.51	27.7778
4	242444	44.61	27.7778
4	243000	44.71	27.7778
4	243556	44.81	27.7778
4	244112	44.91	27.7778
4	244676	45.01	27.7778
4	245232	45.11	27.7778
4	245788	45.21	27.7778
4	246344	45.31	27.7778
4	246900	45.41	27.7778
4	247456	45.51	27.7778
4	248012	45.61	27.7778
4	248568	45.71	27.7778
4	249124	45.81	27.7778
4	249680	45.91	27.7778
4	250244	46.01	27.7778
4	250800	46.11	27.7778
4	251356	46.21	27.7778
4	251912	46.31	27.7778
4	252468	46.41	27.7778
4	253024	46.51	27.7778
4	253580	46.61	27.7778
4	254136	46.71	27.7778
4	254692	46.81	27.7778
4	255248	46.91	27.7778
4	255812	47.01	27.7778
4	256368	47.11	27.7778
4	256924	47.21	27.7778
4	257480	47.31	27.7778
4	258036	47.41	27.7778
4	258592	47.51	27.7778
4	259148	47.61	27.7778
4	259704	47.71	27.7778
4	260260	47.81	27.7778
4	260816	47.91	27.7778
4	261380	48.01	27.7778
4	261936	48.11	27.7778
4	262492	48.21	27.7778
4	263048	48.31	27.7778
4	263604	48.41	27.7778
4	264160	48.51	27.7778
4	264716	48.61	27.7778
4	265272	48.71	27.7778
4	265828	48.81	27.7778
4	266384	48.91	27.7778
4	266948	49.01	27.7778
4	267504	49.11	27.7778
4	268060	49.21	27.7778
4	268616	49.31	27.7778
4	269172	49.41	27.7778
4	269728	49.51	27.7778
4	270284	49.61	27.7778
4	270840	49.71	27.7778
4	271396	49.81	27.7778
4	271952	49.91	27.7778
4	272516	50.01	27.7778
4	273072	50.11	27.7778
4	273628	50.21	27.7778
4	274184	50.31	27.7778
4	274740	50.41	27.7778
4	275296	50.51	27.7778
4	275852	50.61	27.7778
4	276408	50.71	27.7778
4	276964	50.81	27.7778
4	277520	50.91	27.7778
4	278084	51.01	27.7778
4	278640	51.11	27.7778
4	279196	51.21	27.7778
4	279752	51.31	27.7778
4	280308	51.41	27.7778
4	280864	51.51	27.7778
4	281420	51.61	27.7778
4	281976	51.71	27.7778
4	282532	51.81	27.7778
4	283088	51.91	27.7778
4	283652	52.01	27.7778
4	284208	52.11	27.7778
4	284764	52.21	27.7778
4	285320	52.31	27.7778
4	285876	52.41	27.7778
4	286432	52.51	27.7778
4	286988	52.61	27.7778
4	287544	52.71	27.7778
4	288100	52.81	27.7778
4	288656	52.91	27.7778
4	289220	53.01	27.7778
4	289776	53.11	27.7778
4	290332	53.21	27.7778
4	290888	53.31	27.7778
4	291444	53.41	27.7778
4	292000	53.51	27.7778
4	292556	53.61	27.7778
4	293112	53.71	27.7778
4	293668	53.81	27.7778
4	294224	53.91	27.7778
4	294788	54.01	27.7778
4	295344	54.11	27.7778
4	295900	54.21	27.7778
4	296456	54.31	27.7778
4	297012	54.41	27.7778
4	297568	54.51	27.7778
4	298124	54.61	27.7778
4	298680	54.71	27.7778
4	299236	54.81	27.7778
4	299792	54.91	27.7778
4	300356	55.01	27.7778
4	300912	55.11	27.7778
4	301468	55.21	27.7778
4	302024	55.31	27.7778
4	302580	55.41	27.7778
4	303136	55.51	27.7778
4	303692	55.61	27.7778
4	304248	55.71	27.7778
4	304804	55.81	27.7778
4	305360	55.91	27.7778
4	305924	56.01	27.7778
4	306480	56.11	27.7778
4	307036	56.21	27.7778
4	307592	56.31	27.7778
4	308148	56.41	27.7778
4	308704	56.51	27.7778
4	309260	56.61	27.7778
4	309816	56.71	27.7778
4	310372	56.81	27.7778
4	310928	56.91	27.7778
4	311492	57.01	27.7778
4	312048	57.11	27.7778
4	312604	57.21	27.7778
4	313160	57.31	27.7778
4	313716	57.41	27.7778
4	314272	57.51	27.7778
4	314828	57.61	27.7778
4	315384	57.71	27.7778
4	315940	57.81	27.7778
4	316496	57.91	27.7778
4	317060	58.01	27.7778
4	317616	58.11	27.7778
4	318172	58.21	27.7778
4	318728	58.31	27.7778
4	319284	58.41	27.7778
4	319840	58.51	27.7778
4	320396	58.61	27.7778
4	320952	58.71	27.7778
4	321508	58.81	27.7778
4	322064	58.91	27.7778
4	322628	59.01	27.7778
4	323184	59.11	27.7778
4	323740	59.21	27.7778
4	324296	59.31	27.7778
4	324852	59.41	27.7778
4	325408	59.51	27.7778
4	325964	59.61	27.7778
4	326520	59.71	27.7778
4	327076	59.81	27.7778
4	327632	59.91	27.7778
2	233	1.11	0
2	790	1.21	0
2	1346	1.31	0
2	1903	1.41	0
2	2460	1.51	0
2	3016	1.61	0
2	3572	1.71	0
2	4129	1.81	0
2	4685	1.91	0
2	5252	2.01	0
2	5808	2.11	0
2	6364	2.21	0
2	6920	2.31	0
2	7476	2.41	0
2	8032	2.51	0
2	8588	2.61	0
2	9144	2.71	0
2	9700	2.81	0
2	10256	2.91	0
2	10820	3.01	0
2	11376	3.11	0
2	11932	3.21	0
2	12488	3.31	0
2	13044	3.41	0
2	13600	3.51	0
2	14156	3.61	0
2	14712	3.71	0
2	15268	3.81	0
2	15824	3.91	0
2	16388	4.01	0
2	16944	4.11	0
2	17500	4.21	0
2	18056	4.31	0
2	18612	4.41	0
2	19168	4.51	0
2	19724	4.61	0
2	20280	4.71	0
2	20836	4.81	0
2	21392	4.91	0
2	21956	5.01	0
2	22512	5.11	0
2	23068	5.21	0
2	23624	5.31	0
2	24180	5.41	0
2	24736	5.51	0
2	25292	5.61	0
2	25848	5.71	0
2	26404	5.81	0
2	26960	5.91	0
2	27524	6.01	0
2	28080	6.11	0
2	28636	6.21	0
2	29192	6.31	0
2	29748	6.41	0
2	30304	6.51	0
2	30860	6.61	0
2	31416	6.71	0
2	31972	6.81	0
2	32528	6.91	0
2	33092	7.01	0
2	33648	7.11	0
2	34204	7.21	0
2	34760	7.31	0
2	35316	7.41	0
2	35872	7.51	0
2	36428	7.61	0
2	36984	7.71	0
2	37540	7.81	0
2	38096	7.91	0
2	38660	8.01	0
2	39216	8.11	0
2	39772	8.21	0
2	40328	8.31	0
2	40884	8.41	0
2	41440	8.51	0
2	41996	8.61	0
2	42552	8.71	0
2	43108	8.81	0
2	43664	8.91	0
2	44228	9.01	0
2	44784	9.11	0
2	45340	9.21	0
2	45896	9.31	0
2	46452	9.41	0
2	47008	9.51	0
2	47564	9.61	0
2	48120	9.71	0
2	48676	9.81	0
2	49232	9.91	0
2	49796	10.01	0
2	50352	10.11	0
2	50908	10.21	0
2	51464	10.31	0
2	52020	10.41	0
2	52576	10.51	0
2	53132	10.61	0
2	53688	10.71	0
2	54244	10.81	0
2	54800	10.91	0
2	55364	11.01	0
2	55920	11.11	0
2	56476	11.21	0
2	57032	11.31	0
2	57588	11.41	0
2	58144	11.51	0
2	58700	11.61	0
2	59256	11.71	0
2	59812	11.81	0
2	60368	11.91	0
2	60932	12.01	0
2	61488	12.11	0
2	62044	12.21	0
2	62600	12.31	0
2	63156	12.41	0
2	63712	12.51	0
2	64268	12.61	0
2	64824	12.71	0
2	65380	12.81	0
2	65936	12.91	0
2	66500	13.01	0
2	67056	13.11	0
2	67612	13.21	0
2	68168	13.31	0
2	68724	13.41	0
2	69280	13.51	0
2	69836	13.61	0
2	70392	13.71	0
2	70948	13.81	0
2	71504	13.91	0
2	72068	14.01	0
2	72624	14.11	0
2	73180	14.21	0
2	73736	14.31	0
2	74292	14.41	0
2	74848	14.51	0
2	75404	14.61	0
2	75960	14.71	0
2	76516	14.81	0
2	77072	14.91	0
2	77636	15.01	0
2	78192	15.11	0
2	78748	15.21	0
2	79304	15.31	0
2	79860	15.41	0
2	80416	15.51	0
2	80972	15.61	0
2	81528	15.71	0
2	82084	15.81	0
2	82640	15.91	0
2	83204	16.01	0
2	83760	16.11	0
2	84316	16.21	0
2	84872	16.31	0
2	85428	16.41	0
2	85984	16.51	0
2	86540	16.61	0
2	87096	16.71	0
2	87652	16.81	0
2	88208	16.91	0
2	88772	17.01	0
2	89328	17.11	0
2	89884	17.21	0
2	90440	17.31	0
2	90996	17.41	0
2	91552	17.51	0
2	92108	17.61	0
2	92664	17.71	0
2	93220	17.81	0
2	93776	17.91	0
2	94340	18.01	0
2	94896	18.11	0
2	95452	18.21	0
2	96008	18.31	0
2	96564	18.41	0
2	97120	18.51	0
2	97676	18.61	0
2	98232	18.71	0
2	98788	18.81	0
2	99344	18.91	0
2	99908	19.01	0
2	100464	19.11	0
2	101020	19.21	0
2	101576	19.31	0
2	102132	19.41	0
2	102688	19.51	0
2	103244	19.61	0
2	103800	19.71	0
2	104356	19.81	0
2	104912	19.91	0
2	105476	20.01	0
2	106032	20.11	0
2	106588	20.21	0
2	107144	20.31	0
2	107700	20.41	0
2	108256	20.51	0
2	108812	20.61	0
2	109368	20.71	0
2	109924	20.81	0
[...]
174	325595	59.554599127196	7
174	326151	59.654603465901	7
174	326707	59.754594804606	7
174	327263	59.854599143311	7
174	327819	59.954603482016	7
173	1070	1.255199247055	7
173	1627	1.355190585716	7
173	2184	1.455168924377	7
173	2740	1.555225263038	7
173	3296	1.655203601698	7
173	3853	1.755181940357	7
173	4409	1.855238279017	7
173	4966	1.955177617676	7
173	5532	2.055246956333	7
173	6088	2.155251294988	7
173	6644	2.255203633643	7
173	7200	2.355168972295	7
173	7756	2.455212310945	7
173	8312	2.555255649595	7
173	8868	2.655259988242	7
173	9424	2.755238326888	7
173	9980	2.855255665531	7
173	10536	2.95526000417	7
173	11100	3.055199342806	7
173	11656	3.15516468144	7
173	12212	3.25519502007	7
173	12768	3.355199358697	7
173	13324	3.455255697321	7
173	13880	3.555221035941	7
173	14436	3.655199374559	7
173	14992	3.755216713172	7
173	15548	3.855221051781	7
173	16104	3.955264390388	7
173	16668	4.055216728993	7
173	17224	4.155260067593	7
173	17780	4.255199406192	7
173	18336	4.355190744789	7
173	18892	4.455234083385	7
173	19448	4.555264421981	7
173	20004	4.655229760576	7
173	20560	4.755208099171	7
173	21116	4.855225437768	7
173	21672	4.955229776366	7
173	22236	5.055234114967	7
173	22792	5.155199453569	7
173	23348	5.255203792176	7
173	23904	5.355234130785	7
173	24460	5.455186469397	7
173	25016	5.555216808013	7
173	25572	5.655208146633	7
173	26128	5.755199485258	7
173	26684	5.855242823886	7
173	27240	5.955247162518	7
173	27804	6.055264501153	7
173	28360	6.155164839791	7
173	28916	6.255247178432	7
173	29472	6.355238517076	7
173	30028	6.455255855721	7
173	30584	6.555169194368	7
173	31140	6.655186533017	7
173	31696	6.755216871666	7
173	32252	6.855208210315	7
173	32808	6.955251548963	7
173	33372	7.05517788761	7
173	33928	7.155247226256	7
173	34484	7.255173564902	7
173	35040	7.355216903546	7
173	35596	7.45520824219	7
173	36152	7.555173580833	7
173	36708	7.655164919476	7
173	37264	7.755247258117	7
173	37820	7.855186596758	7
173	38376	7.955216935397	7
173	38940	8.055208274036	7
173	39496	8.155225612675	7
173	40052	8.255190951315	7
173	40608	8.355234289956	7
173	41164	8.455212628596	7
173	41720	8.555190967238	7
173	42276	8.65520830588	7
173	42832	8.755251644526	7
173	43388	8.855203983172	7
173	43944	8.955182321819	7
173	44508	9.055225660468	7
173	45064	9.15516499912	7
173	45620	9.255260337773	7
173	46176	9.355264676427	7
173	46732	9.455243015082	7
173	47288	9.555221353737	7
173	47844	9.655199692393	7
173	48400	9.75516503105	7
173	48956	9.855247369707	7
173	49512	9.955173708364	7
173	50076	10.055178047021	7
173	50632	10.155208385678	7
173	51188	10.255264724335	7
173	51744	10.355230062992	7
173	52300	10.455208401649	7
173	52856	10.555199740306	7
173	53412	10.655191078965	7
173	53968	10.755260417624	7
173	54524	10.855264756283	7
173	55080	10.955217094942	7
173	55644	11.055208433601	7
173	56200	11.15523877226	7
173	56756	11.25520411092	7
173	57312	11.35518244958	7
173	57868	11.45521278824	7
173	58424	11.555191126901	7
173	58980	11.655208465562	7
173	59536	11.755251804224	7
173	60092	11.855230142887	7
173	60648	11.95519548155	7
173	61212	12.055264820213	7
173	61768	12.155191158878	7
173	62324	12.255260497543	7
173	62880	12.355238836209	7
173	63436	12.455178174875	7
173	63992	12.555247513541	7
173	64548	12.655186852208	7
173	65104	12.755230190876	7
173	65660	12.855182529544	7
173	66216	12.955251868212	7
173	66780	13.05520420688	7
173	67336	13.155221545549	7
173	67892	13.255264884219	7
173	68448	13.35520422289	7
173	69004	13.455247561561	7
173	69560	13.555225900232	7
173	70116	13.655256238903	7
173	70672	13.755221577574	7
173	71228	13.855199916245	7
173	71784	13.955243254916	7
173	72348	14.055260593587	7
173	72904	14.155238932258	7
173	73460	14.255191270929	7
173	74016	14.3552346096	7
173	74572	14.455238948272	7
173	75128	14.555230286944	7
173	75684	14.655169625617	7
173	76240	14.75518696429	7
173	76796	14.855178302964	7
173	77352	14.955195641638	7
173	77916	15.055199980312	7
173	78472	15.155230318987	7
173	79028	15.255208657663	7
173	79584	15.35518699634	7
173	80140	15.455178335017	7
173	80696	15.555247673695	7
173	81252	15.655252012373	7
173	81808	15.755191351051	7
173	82364	15.855182689729	7
173	82920	15.955174028407	7
173	83484	16.055256367085	7
173	84040	16.155221705765	7
173	84596	16.255226044445	7
173	85152	16.355178383125	7
173	85708	16.455169721805	7
173	86264	16.555239060485	7
173	86820	16.655243399165	7
173	87376	16.755182737845	7
173	87932	16.855200076525	7
173	88488	16.955204415205	7
173	89052	17.055247753885	7
173	89608	17.155200092565	7
173	90164	17.255243431245	7
173	90720	17.355195769925	7
173	91276	17.455213108605	7
173	91832	17.555178447285	7
173	92388	17.655234785965	7
173	92944	17.755174124645	7
173	93500	17.855178463327	7
173	94056	17.955260802009	7
173	94620	18.055265140691	7
173	95176	18.155217479373	7
173	95732	18.255260818055	7
173	96288	18.355213156737	7
173	96844	18.455191495419	7
173	97400	18.555221834101	7
173	97956	18.655200172783	7
173	98512	18.755243511467	7
173	99068	18.855221850152	7
173	99624	18.955265188837	7
173	100188	19.055217527522	7
173	100744	19.155234866207	7
173	101300	19.255226204892	7
173	101856	19.355243543577	7
173	102412	19.455221882262	7
173	102968	19.555265220947	7
173	103524	19.655230559632	7
173	104080	19.755247898317	7
173	104636	19.855174237003	7
173	105192	19.95520457569	7
173	105756	20.055260914377	7
173	106312	20.155265253064	7
173	106868	20.255217591751	7
173	107424	20.355182930438	7
173	107980	20.455252269125	7
173	108536	20.555191607812	7
173	109092	20.655234946499	7
173	109648	20.755187285186	7
173	110204	20.855165623873	7
173	110760	20.955247962561	7
173	111324	21.055252301249	7
173	111880	21.155191639937	7
173	112436	21.255221978625	7
173	112992	21.355265317313	7
173	113548	21.455178656001	7
173	114104	21.55519599469	7
173	114660	21.655226333379	7
173	115216	21.755191672068	7
173	115772	21.855183010757	7
173	116328	21.955187349446	7
173	116892	22.055256688135	7
173	117448	22.155196026824	7
173	118004	22.255226365514	7
173	118560	22.355217704204	7
173	119116	22.455261042894	7
173	119672	22.555213381584	7
173	120228	22.655217720275	7
173	120784	22.755248058966	7
173	121340	22.855239397657	7
173	121896	22.955204736348	7
173	122460	23.055235075039	7
173	123016	23.15521341373	7
173	123572	23.255230752422	7
173	124128	23.355183091114	7
173	124684	23.455174429806	7
173	125240	23.555243768498	7
173	125796	23.65517010719	7
173	126352	23.755200445882	7
173	126908	23.855165784574	7
173	127464	23.955196123266	7
173	128028	24.055213461958	7
173	128584	24.15519180065	7
173	129140	24.255248139343	7
173	129696	24.355200478037	7
173	130252	24.455204816731	7
173	130808	24.555248155425	7
173	131364	24.655252494119	7
173	131920	24.755204832813	7
173	132476	24.855196171507	7
173	133032	24.955174510201	7
173	133596	25.055191848895	7
173	134152	25.155248187589	7
173	134708	25.255187526283	7
173	135264	25.355165864977	7
173	135820	25.455248203671	7
173	136376	25.555213542366	7
173	136932	25.655243881061	7
173	137488	25.755222219756	7
173	138044	25.855265558451	7
173	138600	25.955256897146	7
173	139164	26.055183235841	7
173	139720	26.155213574536	7
173	140276	26.255256913231	7
173	140832	26.355222251927	7
173	141388	26.455187590623	7
173	141944	26.555165929319	7
173	142500	26.655209268015	7
173	143056	26.755213606711	7
173	143612	26.855204945407	7
173	144168	26.955261284103	7
173	144732	27.055213622799	7
173	145288	27.155178961495	7
173	145844	27.255170300191	7
173	146400	27.355200638887	7
173	146956	27.455204977583	7
173	147512	27.555209316279	7
173	148068	27.655187654975	7
173	148624	27.755217993671	7
173	149180	27.855235332367	7
173	149736	27.955226671063	7
173	150300	28.055179009759	7
173	150856	28.155235348455	7
173	151412	28.255187687151	7
173	151968	28.355244025847	7
173	152524	28.455248364543	7
173	153080	28.555226703239	7
173	153636	28.655244041935	7
173	154192	28.755183380631	7
173	154748	28.855213719327	7
173	155304	28.955205058023	7
173	155868	29.055183396719	7
173	156424	29.155174735415	7
173	156980	29.255192074111	7
173	157536	29.355248412807	7
173	158092	29.455239751503	7
173	158648	29.555231090199	7
173	159204	29.655170428895	7
173	159760	29.755252767591	7
173	160316	29.855218106287	7
173	160872	29.955248444983	7
173	161436	30.055187783679	7
173	161992	30.155244122375	7
173	162548	30.255235461071	7
173	163104	30.355265799768	7
173	163660	30.455179138465	7
173	164216	30.555183477162	7
173	164772	30.655226815859	7
173	165328	30.755179154556	7
173	165884	30.855248493253	7
173	166440	30.95526583195	7
173	167004	31.055192170647	7
173	167560	31.155222509344	7
173	168116	31.255252848041	7
173	168672	31.355257186738	7
173	169228	31.455170525435	7
173	169784	31.555239864132	7
173	170340	31.655205202829	7
173	170896	31.755222541526	7
173	171452	31.855174880224	7
173	172008	31.955166218922	7
173	172572	32.05523555762	7
173	173128	32.155265896318	7
173	173684	32.255244235017	7
173	174240	32.355196573716	7
173	174796	32.455174912415	7
173	175352	32.555231251114	7
173	175908	32.655209589813	7
173	176464	32.755187928512	7
173	177020	32.855231267211	7
173	177576	32.95526160591	7
173	178140	33.055187944609	7
173	178696	33.155257283308	7
173	179252	33.255235622007	7
173	179808	33.355265960706	7
173	180364	33.455166299405	7
173	180920	33.555261638104	7
173	181476	33.655265976803	7
173	182032	33.755205315502	7
173	182588	33.855222654201	7
173	183144	33.9552009929	7
173	183708	34.055205331599	7
173	184264	34.155183670298	7
173	184820	34.255240008997	7
173	185376	34.355166347696	7
173	185932	34.455209686395	7
173	186488	34.555214025094	7
173	187044	34.655166363793	7
173	187600	34.755235702492	7
173	188156	34.855214041191	7
173	188712	34.95516637989	7
173	189276	35.055170718589	7
173	189832	35.155188057288	7
173	190388	35.255166395987	7
173	190944	35.355248734686	7
173	191500	35.455253073385	7
173	192056	35.555218412084	7
173	192612	35.655261750783	7
173	193168	35.755266089482	7
173	193724	35.855257428181	7
173	194280	35.95524876688	7
173	194844	36.055266105579	7
173	195400	36.155192444278	7
173	195956	36.255196782977	7
173	196512	36.355175121676	7
173	197068	36.455205460375	7
173	197624	36.555248799074	7
173	198180	36.655214137773	7
173	198736	36.755244476472	7
173	199292	36.855170815171	7
173	199848	36.95521415387	7
173	200412	37.055192492569	7
173	200968	37.155222831268	7
173	201524	37.255253169968	7
173	202080	37.355231508669	7
173	202636	37.45524884737	7
173	203192	37.555240186071	7
173	203748	37.655205524772	7
173	204304	37.755248863473	7
173	204860	37.855188202174	7
173	205416	37.955231540875	7
173	205980	38.055170879576	7
173	206536	38.155227218277	7
173	207092	38.255192556978	7
173	207648	38.355209895679	7
173	208204	38.45525323438	7
173	208760	38.555231573081	7
173	209316	38.655209911782	7
173	209872	38.755175250483	7
173	210428	38.855205589184	7
173	210984	38.955235927885	7
173	211548	39.055188266586	7
173	212104	39.155257605287	7
173	212660	39.255222943988	7
173	213216	39.355266282689	7
173	213772	39.45521862139	7
173	214328	39.555235960091	7
173	214884	39.655201298792	7
173	215440	39.755218637493	7
173	215996	39.855248976194	7
173	216552	39.955201314896	7
173	217116	40.055257653598	7
173	217672	40.1552359923	7
173	218228	40.255188331002	7
173	218784	40.355218669704	7
173	219340	40.455210008406	7
173	219896	40.555188347108	7
173	220452	40.65525768581	7
173	221008	40.755184024512	7
173	221564	40.855201363214	7
173	222120	40.955218701916	7
173	222684	41.055210040618	7
173	223240	41.15522737932	7
173	223796	41.255218718022	7
173	224352	41.355223056724	7
173	224908	41.455214395426	7
173	225464	41.555166734128	7
173	226020	41.65518407283	7
173	226576	41.755266411532	7
173	227132	41.855166750234	7
173	227688	41.955236088936	7
173	228252	42.055240427638	7
173	228808	42.15525776634	7
173	229364	42.255236105042	7
173	229920	42.355266443744	7
173	230476	42.455205782446	7
173	231032	42.555236121148	7
173	231588	42.65526645985	7
173	232144	42.755244798552	7
173	232700	42.855184137254	7
173	233256	42.955240475956	7
173	233820	43.055231814659	7
173	234376	43.155197153362	7
173	234932	43.255253492065	7
173	235488	43.355192830768	7
173	236044	43.455197169471	7
173	236600	43.555240508174	7
173	237156	43.655179846877	7
173	237712	43.755210185581	7
173	238268	43.855175524285	7
173	238824	43.955244862989	7
173	239388	44.055210201693	7
173	239944	44.155188540397	7
173	240500	44.255257879101	7
173	241056	44.355262217805	7
173	241612	44.455253556509	7
173	242168	44.555244895213	7
173	242724	44.655210233917	7
173	243280	44.755201572621	7
173	243836	44.855218911325	7
173	244392	44.955210250029	7
173	244956	45.055240588733	7
173	245512	45.155179927437	7
173	246068	45.255184266141	7
173	246624	45.355188604845	7
173	247180	45.455205943549	7
173	247736	45.555262282253	7
173	248292	45.655240620957	7
173	248848	45.755205959661	7
173	249404	45.855171298365	7
173	249960	45.955253637069	7
173	250524	46.055205975773	7
173	251080	46.155223314477	7
173	251636	46.255175653181	7
173	252192	46.355218991885	7
173	252748	46.455223330589	7
173	253304	46.555188669293	7
173	253860	46.655219007997	7
173	254416	46.755210346701	7
173	254972	46.855162685405	7
173	255528	46.955258024109	7
173	256092	47.055236362813	7
173	256648	47.155214701517	7
173	257204	47.255245040221	7
173	257760	47.355197378925	7
173	258316	47.455188717629	7
173	258872	47.555245056333	7
173	259428	47.655249395037	7
173	259984	47.755188733741	7
173	260540	47.855180072445	7
173	261096	47.955223411149	7
173	261660	48.055240749853	7
173	262216	48.155232088557	7
173	262772	48.255171427261	7
173	263328	48.355227765966	7
173	263884	48.455206104671	7
173	264440	48.555184443376	7
173	264996	48.655253782081	7
173	265552	48.755180120786	7
173	266108	48.855210459491	7
173	266664	48.955188798196	7
173	267228	49.055245136901	7
173	267784	49.155210475606	7
173	268340	49.255240814311	7
173	268896	49.355258153016	7
173	269452	49.455197491721	7
173	270008	49.555214830426	7
173	270564	49.655206169131	7
173	271120	49.755236507836	7
173	271676	49.855201846541	7
173	272232	49.955180185246	7
173	272796	50.055262523951	7
173	273352	50.155188862656	7
173	273908	50.255232201361	7
173	274464	50.355184540066	7
173	275020	50.455227878771	7
173	275576	50.555245217476	7
173	276132	50.655197556181	7
173	276688	50.755214894886	7
173	277244	50.855206233591	7
173	277800	50.955197572296	7
173	278364	51.055253911001	7
173	278920	51.155167249706	7
173	279476	51.255262588411	7
173	280032	51.355162927116	7
173	280588	51.455206265821	7
173	281144	51.555171604526	7
173	281700	51.655201943231	7
173	282256	51.755258281936	7
173	282812	51.855249620641	7
173	283368	51.955162959346	7
173	283932	52.055245298051	7
173	284488	52.155236636756	7
173	285044	52.255227975461	7
173	285600	52.355232314166	7
173	286156	52.455184652871	7
173	286712	52.555175991576	7
173	287268	52.655232330281	7
173	287824	52.755171668986	7
173	288380	52.855163007691	7
173	288936	52.955180346396	7
173	289500	53.055197685101	7
173	290056	53.155241023806	7
173	290612	53.255232362511	7
173	291168	53.355184701216	7
173	291724	53.455215039921	7
173	292280	53.555167378626	7
173	292836	53.655197717331	7
173	293392	53.755228056036	7
173	293948	53.855167394741	7
173	294504	53.955210733446	7
173	295068	54.055163072151	7
173	295624	54.155245410856	7
173	296180	54.255197749561	7
173	296736	54.355189088266	7
173	297292	54.455245426971	7
173	297848	54.555210765676	7
173	298404	54.655228104381	7
173	298960	54.755245443086	7
173	299516	54.855171781791	7
173	300072	54.955215120496	7
173	300636	55.055206459201	7
173	301192	55.155223797906	7
173	301748	55.255254136611	7
173	302304	55.355245475316	7
173	302860	55.455197814021	7
173	303416	55.555241152726	7
173	303972	55.655245491431	7
173	304528	55.755223830136	7
173	305084	55.855241168841	7
173	305640	55.955258507546	7
173	306204	56.055197846251	7
173	306760	56.155202184956	7
173	307316	56.255245523661	7
173	307872	56.355262862366	7
173	308428	56.455254201071	7
173	308984	56.555245539776	7
173	309540	56.655184878481	7
173	310096	56.755254217186	7
173	310652	56.855245555891	7
173	311208	56.955236894596	7
173	311772	57.055215233301	7
173	312328	57.155180572006	7
173	312884	57.255249910711	7
173	313440	57.355189249416	7
173	313996	57.455232588121	7
173	314552	57.555197926826	7
173	315108	57.655163265531	7
173	315664	57.755258604236	7
173	316220	57.855249942941	7
173	316776	57.955241281646	7
173	317340	58.055193620351	7
173	317896	58.155184959056	7
173	318452	58.255215297761	7
173	319008	58.355167636466	7
173	319564	58.455223975171	7
173	320120	58.555176313876	7
173	320676	58.655180652581	7
173	321232	58.755197991286	7
173	321788	58.855163329991	7
173	322344	58.955232668696	7
173	322908	59.055250007401	7
173	323464	59.155176346106	7
173	324020	59.255206684811	7
173	324576	59.355250023516	7
173	325132	59.455189362221	7
173	325688	59.555232700926	7
173	326244	59.655237039631	7
173	326800	59.755176378336	7
173	327356	59.855258717041	7
173	327912	59.955224055746	7
172	5115	2	0
172	10685	3	0
172	16253	4	0
172	21821	5	0
172	27389	6	0
172	32957	7	0
172	38525	8	0
172	44093	9	0
172	49661	10	0
172	55229	11	0
172	60797	12	0
172	66365	13	0
172	71933	14	0
172	77501	15	0
172	83069	16	0
172	88637	17	0
172	94205	18	0
172	99773	19	0
172	105341	20	0
172	110909	21	0
172	116477	22	0
172	122045	23	0
172	127613	24	0
172	133181	25	0
172	138749	26	0
172	144317	27	0
172	149885	28	0
172	155453	29	0
172	161021	30	0
172	166589	31	0
172	172157	32	0
172	177725	33	0
172	183293	34	0
172	188861	35	0
172	194429	36	0
172	199997	37	0
172	205565	38	0
172	211133	39	0
172	216701	40	0
172	222269	41	0
172	227837	42	0
172	233405	43	0
172	238973	44	0
172	244541	45	0
172	250109	46	0
172	255677	47	0
172	261245	48	0
172	266813	49	0
172	272381	50	0
172	277949	51	0
172	283517	52	0
172	289085	53	0
172	294653	54	0
172	300221	55	0
172	305789	56	0
172	311357	57	0
172	316925	58	0
172	322493	59	0
172	328061	60	0
171	5115	2	0.034729
171	10685	3	0.03969
171	16253	4	0.03969
171	21821	5	0.03969
171	27389	6	0.03969
171	32957	7	0.03969
171	38525	8	0.03969
171	44093	9	0.03969
171	49661	10	0.03969
171	55229	11	0.03969
171	60797	12	0.03969
171	66365	13	0.03969
171	71933	14	0.03969
171	77501	15	0.03969
171	83069	16	0.03969
171	88637	17	0.03969
171	94205	18	0.03969
171	99773	19	0.03969
171	105341	20	0.03969
171	110909	21	0.03969
171	116477	22	0.03969
171	122045	23	0.03969
171	127613	24	0.03969
171	133181	25	0.03969
171	138749	26	0.03969
171	144317	27	0.03969
171	149885	28	0.03969
171	155453	29	0.03969
171	161021	30	0.03969
171	166589	31	0.03969
171	172157	32	0.03969
171	177725	33	0.03969
171	183293	34	0.03969
171	188861	35	0.03969
171	194429	36	0.03969
171	199997	37	0.03969
171	205565	38	0.03969
171	211133	39	0.03969
171	216701	40	0.03969
171	222269	41	0.03969
171	227837	42	0.03969
171	233405	43	0.03969
171	238973	44	0.03969
171	244541	45	0.03969
171	250109	46	0.03969
171	255677	47	0.03969
171	261245	48	0.03969
171	266813	49	0.03969
171	272381	50	0.03969
171	277949	51	0.03969
171	283517	52	0.03969
171	289085	53	0.03969
171	294653	54	0.03969
171	300221	55	0.03969
171	305789	56	0.03969
171	311357	57	0.03969
171	316925	58	0.03969
171	322493	59	0.03969
171	328061	60	0.03969
170	5115	2	7
170	10685	3	7
170	16253	4	7
170	21821	5	7
170	27389	6	7
170	32957	7	7
170	38525	8	7
170	44093	9	7
170	49661	10	7
170	55229	11	7
170	60797	12	7
170	66365	13	7
170	71933	14	7
170	77501	15	7
170	83069	16	7
170	88637	17	7
170	94205	18	7
170	99773	19	7
170	105341	20	7
170	110909	21	7
170	116477	22	7
170	122045	23	7
170	127613	24	7
170	133181	25	7
170	138749	26	7
170	144317	27	7
170	149885	28	7
170	155453	29	7
170	161021	30	7
170	166589	31	7
170	172157	32	7
170	177725	33	7
170	183293	34	7
170	188861	35	7
170	194429	36	7
170	199997	37	7
170	205565	38	7
170	211133	39	7
170	216701	40	7
170	222269	41	7
170	227837	42	7
170	233405	43	7
170	238973	44	7
170	244541	45	7
170	250109	46	7
170	255677	47	7
170	261245	48	7
170	266813	49	7
170	272381	50	7
170	277949	51	7
170	283517	52	7
170	289085	53	7
170	294653	54	7
170	300221	55	7
170	305789	56	7
170	311357	57	7
170	316925	58	7
170	322493	59	7
170	328061	60	7
